WARNING: physical memory size is smaller than virtual memory size

*** ChampSim Multicore Out-of-Order Simulator ***

Warmup Instructions: 10000000
Simulation Instructions: 50000000
Number of CPUs: 1
Page size: 4096

CPU 0 Bimodal branch predictor
Basic BTB sets: 1024 ways: 8 indirect buffer size: 4096 RAS size: 64
Off-chip DRAM Size: 4 GiB Channels: 1 Width: 64-bit Data Rate: 3200 MT/s
Heartbeat CPU 0 instructions: 10000002 cycles: 2508339 heartbeat IPC: 3.98671 cumulative IPC: 3.98671 (Simulation time: 0 hr 0 min 14 sec) 
Warmup finished CPU 0 instructions: 10000002 cycles: 2508340 cumulative IPC: 3.98671 (Simulation time: 0 hr 0 min 14 sec) 

Warmup complete CPU 0 instructions: 10000002 cycles: 2508340 (Simulation time: 0 hr 0 min 14 sec) 

Heartbeat CPU 0 instructions: 20000001 cycles: 8208404 heartbeat IPC: 1.75437 cumulative IPC: 1.75437 (Simulation time: 0 hr 0 min 37 sec) 
Heartbeat CPU 0 instructions: 30000000 cycles: 13942191 heartbeat IPC: 1.74405 cumulative IPC: 1.7492 (Simulation time: 0 hr 0 min 59 sec) 
Heartbeat CPU 0 instructions: 40000000 cycles: 19610354 heartbeat IPC: 1.76425 cumulative IPC: 1.75418 (Simulation time: 0 hr 1 min 22 sec) 
Heartbeat CPU 0 instructions: 50000002 cycles: 25337069 heartbeat IPC: 1.74621 cumulative IPC: 1.75218 (Simulation time: 0 hr 1 min 45 sec) 
Heartbeat CPU 0 instructions: 60000000 cycles: 31114847 heartbeat IPC: 1.73077 cumulative IPC: 1.74786 (Simulation time: 0 hr 2 min 8 sec) 
Simulation finished CPU 0 instructions: 50000002 cycles: 28606509 cumulative IPC: 1.74786 (Simulation time: 0 hr 2 min 8 sec) 

Simulation complete CPU 0 instructions: 50000002 cycles: 28606509 (Simulation time: 0 hr 2 min 8 sec) 


ChampSim completed all CPUs

=== Simulation ===
CPU 0 runs benchmarks/657.xz_s-4994B.champsimtrace.xz

Region of Interest Statistics

CPU 0 cumulative IPC: 1.74786 instructions: 50000002 cycles: 28606509
CPU 0 Branch Prediction Accuracy: 86.2681% MPKI: 14.394 Average ROB Occupancy at Mispredict: 26.1644
Branch type MPKI
BRANCH_DIRECT_JUMP: 0.00012
BRANCH_INDIRECT: 0.00102
BRANCH_CONDITIONAL: 14.3928
BRANCH_DIRECT_CALL: 0
BRANCH_INDIRECT_CALL: 0
BRANCH_RETURN: 2e-05

LLC TOTAL       ACCESS:      10234  HIT:       1157  MISS:       9077
LLC LOAD         ACCESS:       2595  HIT:         38  MISS:       2557
LLC RFO          ACCESS:       6508  HIT:          0  MISS:       6508
LLC PREFETCH     ACCESS:          0  HIT:          0  MISS:          0
LLC WRITE        ACCESS:       1119  HIT:       1119  MISS:          0
LLC TRANSLATION  ACCESS:         12  HIT:          0  MISS:         12
LLC PREFETCH  REQUESTED:          0  ISSUED:          0  USEFUL:          0  USELESS:          0
LLC AVERAGE MISS LATENCY: 89.9494 cycles
cpu0_DTLB TOTAL       ACCESS:    7187182  HIT:    7185698  MISS:       1484
cpu0_DTLB LOAD         ACCESS:    7187182  HIT:    7185698  MISS:       1484
cpu0_DTLB RFO          ACCESS:          0  HIT:          0  MISS:          0
cpu0_DTLB PREFETCH     ACCESS:          0  HIT:          0  MISS:          0
cpu0_DTLB WRITE        ACCESS:          0  HIT:          0  MISS:          0
cpu0_DTLB TRANSLATION  ACCESS:          0  HIT:          0  MISS:          0
cpu0_DTLB PREFETCH  REQUESTED:          0  ISSUED:          0  USEFUL:          0  USELESS:          0
cpu0_DTLB AVERAGE MISS LATENCY: 27.6112 cycles
cpu0_ITLB TOTAL       ACCESS:     524700  HIT:     524700  MISS:          0
cpu0_ITLB LOAD         ACCESS:     524700  HIT:     524700  MISS:          0
cpu0_ITLB RFO          ACCESS:          0  HIT:          0  MISS:          0
cpu0_ITLB PREFETCH     ACCESS:          0  HIT:          0  MISS:          0
cpu0_ITLB WRITE        ACCESS:          0  HIT:          0  MISS:          0
cpu0_ITLB TRANSLATION  ACCESS:          0  HIT:          0  MISS:          0
cpu0_ITLB PREFETCH  REQUESTED:          0  ISSUED:          0  USEFUL:          0  USELESS:          0
cpu0_ITLB AVERAGE MISS LATENCY: -nan cycles
cpu0_L1D TOTAL       ACCESS:    8193678  HIT:    8090573  MISS:     103105
cpu0_L1D LOAD         ACCESS:    5062937  HIT:    5032311  MISS:      30626
cpu0_L1D RFO          ACCESS:          0  HIT:          0  MISS:          0
cpu0_L1D PREFETCH     ACCESS:          0  HIT:          0  MISS:          0
cpu0_L1D WRITE        ACCESS:    3130558  HIT:    3058191  MISS:      72367
cpu0_L1D TRANSLATION  ACCESS:        183  HIT:         71  MISS:        112
cpu0_L1D PREFETCH  REQUESTED:          0  ISSUED:          0  USEFUL:          0  USELESS:          0
cpu0_L1D AVERAGE MISS LATENCY: 11.7248 cycles
cpu0_L1I TOTAL       ACCESS:     605907  HIT:     605900  MISS:          7
cpu0_L1I LOAD         ACCESS:     605907  HIT:     605900  MISS:          7
cpu0_L1I RFO          ACCESS:          0  HIT:          0  MISS:          0
cpu0_L1I PREFETCH     ACCESS:          0  HIT:          0  MISS:          0
cpu0_L1I WRITE        ACCESS:          0  HIT:          0  MISS:          0
cpu0_L1I TRANSLATION  ACCESS:          0  HIT:          0  MISS:          0
cpu0_L1I PREFETCH  REQUESTED:          0  ISSUED:          0  USEFUL:          0  USELESS:          0
cpu0_L1I AVERAGE MISS LATENCY: 169.858 cycles
cpu0_L2C TOTAL       ACCESS:      25595  HIT:      16458  MISS:       9137
cpu0_L2C LOAD         ACCESS:       9139  HIT:       6544  MISS:       2595
cpu0_L2C RFO          ACCESS:       9447  HIT:       2939  MISS:       6508
cpu0_L2C PREFETCH     ACCESS:          0  HIT:          0  MISS:          0
cpu0_L2C WRITE        ACCESS:       6925  HIT:       6903  MISS:         22
cpu0_L2C TRANSLATION  ACCESS:         84  HIT:         72  MISS:         12
cpu0_L2C PREFETCH  REQUESTED:          0  ISSUED:          0  USEFUL:          0  USELESS:          0
cpu0_L2C AVERAGE MISS LATENCY: 110.306 cycles
cpu0_STLB TOTAL       ACCESS:        309  HIT:        154  MISS:        155
cpu0_STLB LOAD         ACCESS:        309  HIT:        154  MISS:        155
cpu0_STLB RFO          ACCESS:          0  HIT:          0  MISS:          0
cpu0_STLB PREFETCH     ACCESS:          0  HIT:          0  MISS:          0
cpu0_STLB WRITE        ACCESS:          0  HIT:          0  MISS:          0
cpu0_STLB TRANSLATION  ACCESS:          0  HIT:          0  MISS:          0
cpu0_STLB PREFETCH  REQUESTED:          0  ISSUED:          0  USEFUL:          0  USELESS:          0
cpu0_STLB AVERAGE MISS LATENCY: 247.407 cycles

DRAM Statistics
Channel 0
 RQ ROW_BUFFER_HIT:       8551
  ROW_BUFFER_MISS:        526
 AVG DBUS CONGESTED CYCLE:    3.90625
 WQ ROW_BUFFER_HIT:          0
  ROW_BUFFER_MISS:          0  FULL:          0
