WARNING: physical memory size is smaller than virtual memory size

*** ChampSim Multicore Out-of-Order Simulator ***

Warmup Instructions: 10000000
Simulation Instructions: 50000000
Number of CPUs: 1
Page size: 4096

CPU 0 GAp branch predictor
Basic BTB sets: 1024 ways: 8 indirect buffer size: 4096 RAS size: 64
Off-chip DRAM Size: 4 GiB Channels: 1 Width: 64-bit Data Rate: 3200 MT/s
Heartbeat CPU 0 instructions: 10000000 cycles: 2500046 heartbeat IPC: 3.99993 cumulative IPC: 3.99993 (Simulation time: 0 hr 0 min 17 sec) 
Warmup finished CPU 0 instructions: 10000000 cycles: 2500047 cumulative IPC: 3.99993 (Simulation time: 0 hr 0 min 17 sec) 

Warmup complete CPU 0 instructions: 10000000 cycles: 2500047 (Simulation time: 0 hr 0 min 17 sec) 

Heartbeat CPU 0 instructions: 20000000 cycles: 16817746 heartbeat IPC: 0.698437 cumulative IPC: 0.698437 (Simulation time: 0 hr 1 min 21 sec) 
Heartbeat CPU 0 instructions: 30000001 cycles: 31033772 heartbeat IPC: 0.703432 cumulative IPC: 0.700925 (Simulation time: 0 hr 2 min 26 sec) 
Heartbeat CPU 0 instructions: 40000000 cycles: 44922407 heartbeat IPC: 0.720014 cumulative IPC: 0.707175 (Simulation time: 0 hr 3 min 30 sec) 
Heartbeat CPU 0 instructions: 50000004 cycles: 57902264 heartbeat IPC: 0.770425 cumulative IPC: 0.721993 (Simulation time: 0 hr 4 min 32 sec) 
Heartbeat CPU 0 instructions: 60000003 cycles: 73749834 heartbeat IPC: 0.631012 cumulative IPC: 0.701757 (Simulation time: 0 hr 5 min 44 sec) 
Simulation finished CPU 0 instructions: 50000003 cycles: 71249788 cumulative IPC: 0.701757 (Simulation time: 0 hr 5 min 44 sec) 

Simulation complete CPU 0 instructions: 50000003 cycles: 71249788 (Simulation time: 0 hr 5 min 44 sec) 


ChampSim completed all CPUs

=== Simulation ===
CPU 0 runs benchmarks/603.bwaves_s-2931B.champsimtrace.xz

Region of Interest Statistics

CPU 0 cumulative IPC: 0.701757 instructions: 50000003 cycles: 71249788
CPU 0 Branch Prediction Accuracy: 96.742% MPKI: 0.27498 Average ROB Occupancy at Mispredict: 351.328
Branch type MPKI
BRANCH_DIRECT_JUMP: 0
BRANCH_INDIRECT: 0
BRANCH_CONDITIONAL: 0.27498
BRANCH_DIRECT_CALL: 0
BRANCH_INDIRECT_CALL: 0
BRANCH_RETURN: 0

LLC TOTAL       ACCESS:    1046879  HIT:     365087  MISS:     681792
LLC LOAD         ACCESS:     450936  HIT:      67146  MISS:     383790
LLC RFO          ACCESS:     297696  HIT:          0  MISS:     297696
LLC PREFETCH     ACCESS:          0  HIT:          0  MISS:          0
LLC WRITE        ACCESS:     297939  HIT:     297938  MISS:          1
LLC TRANSLATION  ACCESS:        308  HIT:          3  MISS:        305
LLC PREFETCH  REQUESTED:          0  ISSUED:          0  USEFUL:          0  USELESS:          0
LLC AVERAGE MISS LATENCY: 521.68 cycles
cpu0_DTLB TOTAL       ACCESS:   13720505  HIT:   13648865  MISS:      71640
cpu0_DTLB LOAD         ACCESS:   13720505  HIT:   13648865  MISS:      71640
cpu0_DTLB RFO          ACCESS:          0  HIT:          0  MISS:          0
cpu0_DTLB PREFETCH     ACCESS:          0  HIT:          0  MISS:          0
cpu0_DTLB WRITE        ACCESS:          0  HIT:          0  MISS:          0
cpu0_DTLB TRANSLATION  ACCESS:          0  HIT:          0  MISS:          0
cpu0_DTLB PREFETCH  REQUESTED:          0  ISSUED:          0  USEFUL:          0  USELESS:          0
cpu0_DTLB AVERAGE MISS LATENCY: 41.1186 cycles
cpu0_ITLB TOTAL       ACCESS:          8  HIT:          8  MISS:          0
cpu0_ITLB LOAD         ACCESS:          8  HIT:          8  MISS:          0
cpu0_ITLB RFO          ACCESS:          0  HIT:          0  MISS:          0
cpu0_ITLB PREFETCH     ACCESS:          0  HIT:          0  MISS:          0
cpu0_ITLB WRITE        ACCESS:          0  HIT:          0  MISS:          0
cpu0_ITLB TRANSLATION  ACCESS:          0  HIT:          0  MISS:          0
cpu0_ITLB PREFETCH  REQUESTED:          0  ISSUED:          0  USEFUL:          0  USELESS:          0
cpu0_ITLB AVERAGE MISS LATENCY: -nan cycles
cpu0_L1D TOTAL       ACCESS:   16748477  HIT:   14349900  MISS:    2398577
cpu0_L1D LOAD         ACCESS:    7585124  HIT:    6322031  MISS:    1263093
cpu0_L1D RFO          ACCESS:          0  HIT:          0  MISS:          0
cpu0_L1D PREFETCH     ACCESS:          0  HIT:          0  MISS:          0
cpu0_L1D WRITE        ACCESS:    9152682  HIT:    8027848  MISS:    1124834
cpu0_L1D TRANSLATION  ACCESS:      10671  HIT:         21  MISS:      10650
cpu0_L1D PREFETCH  REQUESTED:          0  ISSUED:          0  USEFUL:          0  USELESS:          0
cpu0_L1D AVERAGE MISS LATENCY: 158.67 cycles
cpu0_L1I TOTAL       ACCESS:         10  HIT:          2  MISS:          8
cpu0_L1I LOAD         ACCESS:         10  HIT:          2  MISS:          8
cpu0_L1I RFO          ACCESS:          0  HIT:          0  MISS:          0
cpu0_L1I PREFETCH     ACCESS:          0  HIT:          0  MISS:          0
cpu0_L1I WRITE        ACCESS:          0  HIT:          0  MISS:          0
cpu0_L1I TRANSLATION  ACCESS:          0  HIT:          0  MISS:          0
cpu0_L1I PREFETCH  REQUESTED:          0  ISSUED:          0  USEFUL:          0  USELESS:          0
cpu0_L1I AVERAGE MISS LATENCY: 240.625 cycles
cpu0_L2C TOTAL       ACCESS:    1163870  HIT:     414927  MISS:     748943
cpu0_L2C LOAD         ACCESS:     518600  HIT:      67661  MISS:     450939
cpu0_L2C RFO          ACCESS:     315483  HIT:      17787  MISS:     297696
cpu0_L2C PREFETCH     ACCESS:          0  HIT:          0  MISS:          0
cpu0_L2C WRITE        ACCESS:     319137  HIT:     319137  MISS:          0
cpu0_L2C TRANSLATION  ACCESS:      10650  HIT:      10342  MISS:        308
cpu0_L2C PREFETCH  REQUESTED:          0  ISSUED:          0  USEFUL:          0  USELESS:          0
cpu0_L2C AVERAGE MISS LATENCY: 495.819 cycles
cpu0_STLB TOTAL       ACCESS:      53568  HIT:      42924  MISS:      10644
cpu0_STLB LOAD         ACCESS:      53568  HIT:      42924  MISS:      10644
cpu0_STLB RFO          ACCESS:          0  HIT:          0  MISS:          0
cpu0_STLB PREFETCH     ACCESS:          0  HIT:          0  MISS:          0
cpu0_STLB WRITE        ACCESS:          0  HIT:          0  MISS:          0
cpu0_STLB TRANSLATION  ACCESS:          0  HIT:          0  MISS:          0
cpu0_STLB PREFETCH  REQUESTED:          0  ISSUED:          0  USEFUL:          0  USELESS:          0
cpu0_STLB AVERAGE MISS LATENCY: 235.451 cycles

DRAM Statistics
Channel 0
 RQ ROW_BUFFER_HIT:     472024
  ROW_BUFFER_MISS:     209762
 AVG DBUS CONGESTED CYCLE:    3.97326
 WQ ROW_BUFFER_HIT:     153457
  ROW_BUFFER_MISS:     144196  FULL:          0
