WARNING: physical memory size is smaller than virtual memory size

*** ChampSim Multicore Out-of-Order Simulator ***

Warmup Instructions: 10000000
Simulation Instructions: 50000000
Number of CPUs: 1
Page size: 4096

CPU 0 GAp branch predictor
Basic BTB sets: 1024 ways: 8 indirect buffer size: 4096 RAS size: 64
Off-chip DRAM Size: 4 GiB Channels: 1 Width: 64-bit Data Rate: 3200 MT/s
Heartbeat CPU 0 instructions: 10000000 cycles: 2500130 heartbeat IPC: 3.9998 cumulative IPC: 3.9998 (Simulation time: 0 hr 0 min 15 sec) 
Warmup finished CPU 0 instructions: 10000000 cycles: 2500131 cumulative IPC: 3.9998 (Simulation time: 0 hr 0 min 15 sec) 

Warmup complete CPU 0 instructions: 10000000 cycles: 2500131 (Simulation time: 0 hr 0 min 15 sec) 

Heartbeat CPU 0 instructions: 20000000 cycles: 7854401 heartbeat IPC: 1.86767 cumulative IPC: 1.86767 (Simulation time: 0 hr 0 min 39 sec) 
Heartbeat CPU 0 instructions: 30000000 cycles: 13223361 heartbeat IPC: 1.86256 cumulative IPC: 1.86511 (Simulation time: 0 hr 1 min 3 sec) 
Heartbeat CPU 0 instructions: 40000003 cycles: 18580684 heartbeat IPC: 1.86661 cumulative IPC: 1.86561 (Simulation time: 0 hr 1 min 28 sec) 
Heartbeat CPU 0 instructions: 50000002 cycles: 23924835 heartbeat IPC: 1.87121 cumulative IPC: 1.86701 (Simulation time: 0 hr 1 min 52 sec) 
Heartbeat CPU 0 instructions: 60000001 cycles: 29272673 heartbeat IPC: 1.86992 cumulative IPC: 1.86759 (Simulation time: 0 hr 2 min 16 sec) 
Simulation finished CPU 0 instructions: 50000001 cycles: 26772543 cumulative IPC: 1.86759 (Simulation time: 0 hr 2 min 16 sec) 

Simulation complete CPU 0 instructions: 50000001 cycles: 26772543 (Simulation time: 0 hr 2 min 16 sec) 


ChampSim completed all CPUs

=== Simulation ===
CPU 0 runs benchmarks/621.wrf_s-575B.champsimtrace.xz

Region of Interest Statistics

CPU 0 cumulative IPC: 1.86759 instructions: 50000001 cycles: 26772543
CPU 0 Branch Prediction Accuracy: 93.6555% MPKI: 8.45498 Average ROB Occupancy at Mispredict: 60.601
Branch type MPKI
BRANCH_DIRECT_JUMP: 0
BRANCH_INDIRECT: 0
BRANCH_CONDITIONAL: 8.44036
BRANCH_DIRECT_CALL: 0
BRANCH_INDIRECT_CALL: 0
BRANCH_RETURN: 0.01462

LLC TOTAL       ACCESS:       1239  HIT:          0  MISS:       1239
LLC LOAD         ACCESS:        457  HIT:          0  MISS:        457
LLC RFO          ACCESS:        746  HIT:          0  MISS:        746
LLC PREFETCH     ACCESS:          0  HIT:          0  MISS:          0
LLC WRITE        ACCESS:          0  HIT:          0  MISS:          0
LLC TRANSLATION  ACCESS:         36  HIT:          0  MISS:         36
LLC PREFETCH  REQUESTED:          0  ISSUED:          0  USEFUL:          0  USELESS:          0
LLC AVERAGE MISS LATENCY: 154.727 cycles
cpu0_DTLB TOTAL       ACCESS:    8836371  HIT:    8833880  MISS:       2491
cpu0_DTLB LOAD         ACCESS:    8836371  HIT:    8833880  MISS:       2491
cpu0_DTLB RFO          ACCESS:          0  HIT:          0  MISS:          0
cpu0_DTLB PREFETCH     ACCESS:          0  HIT:          0  MISS:          0
cpu0_DTLB WRITE        ACCESS:          0  HIT:          0  MISS:          0
cpu0_DTLB TRANSLATION  ACCESS:          0  HIT:          0  MISS:          0
cpu0_DTLB PREFETCH  REQUESTED:          0  ISSUED:          0  USEFUL:          0  USELESS:          0
cpu0_DTLB AVERAGE MISS LATENCY: 12.611 cycles
cpu0_ITLB TOTAL       ACCESS:     244202  HIT:     244202  MISS:          0
cpu0_ITLB LOAD         ACCESS:     244202  HIT:     244202  MISS:          0
cpu0_ITLB RFO          ACCESS:          0  HIT:          0  MISS:          0
cpu0_ITLB PREFETCH     ACCESS:          0  HIT:          0  MISS:          0
cpu0_ITLB WRITE        ACCESS:          0  HIT:          0  MISS:          0
cpu0_ITLB TRANSLATION  ACCESS:          0  HIT:          0  MISS:          0
cpu0_ITLB PREFETCH  REQUESTED:          0  ISSUED:          0  USEFUL:          0  USELESS:          0
cpu0_ITLB AVERAGE MISS LATENCY: -nan cycles
cpu0_L1D TOTAL       ACCESS:    9651676  HIT:    9648674  MISS:       3002
cpu0_L1D LOAD         ACCESS:    7716619  HIT:    7715390  MISS:       1229
cpu0_L1D RFO          ACCESS:          0  HIT:          0  MISS:          0
cpu0_L1D PREFETCH     ACCESS:          0  HIT:          0  MISS:          0
cpu0_L1D WRITE        ACCESS:    1935003  HIT:    1933278  MISS:       1725
cpu0_L1D TRANSLATION  ACCESS:         54  HIT:          6  MISS:         48
cpu0_L1D PREFETCH  REQUESTED:          0  ISSUED:          0  USEFUL:          0  USELESS:          0
cpu0_L1D AVERAGE MISS LATENCY: 77.2589 cycles
cpu0_L1I TOTAL       ACCESS:     284014  HIT:     283545  MISS:        469
cpu0_L1I LOAD         ACCESS:     284014  HIT:     283545  MISS:        469
cpu0_L1I RFO          ACCESS:          0  HIT:          0  MISS:          0
cpu0_L1I PREFETCH     ACCESS:          0  HIT:          0  MISS:          0
cpu0_L1I WRITE        ACCESS:          0  HIT:          0  MISS:          0
cpu0_L1I TRANSLATION  ACCESS:          0  HIT:          0  MISS:          0
cpu0_L1I PREFETCH  REQUESTED:          0  ISSUED:          0  USEFUL:          0  USELESS:          0
cpu0_L1I AVERAGE MISS LATENCY: 7.10022 cycles
cpu0_L2C TOTAL       ACCESS:       2136  HIT:        897  MISS:       1239
cpu0_L2C LOAD         ACCESS:        810  HIT:        353  MISS:        457
cpu0_L2C RFO          ACCESS:        765  HIT:         19  MISS:        746
cpu0_L2C PREFETCH     ACCESS:          0  HIT:          0  MISS:          0
cpu0_L2C WRITE        ACCESS:        519  HIT:        519  MISS:          0
cpu0_L2C TRANSLATION  ACCESS:         42  HIT:          6  MISS:         36
cpu0_L2C PREFETCH  REQUESTED:          0  ISSUED:          0  USEFUL:          0  USELESS:          0
cpu0_L2C AVERAGE MISS LATENCY: 175.727 cycles
cpu0_STLB TOTAL       ACCESS:       1757  HIT:       1709  MISS:         48
cpu0_STLB LOAD         ACCESS:       1757  HIT:       1709  MISS:         48
cpu0_STLB RFO          ACCESS:          0  HIT:          0  MISS:          0
cpu0_STLB PREFETCH     ACCESS:          0  HIT:          0  MISS:          0
cpu0_STLB WRITE        ACCESS:          0  HIT:          0  MISS:          0
cpu0_STLB TRANSLATION  ACCESS:          0  HIT:          0  MISS:          0
cpu0_STLB PREFETCH  REQUESTED:          0  ISSUED:          0  USEFUL:          0  USELESS:          0
cpu0_STLB AVERAGE MISS LATENCY: 360.375 cycles

DRAM Statistics
Channel 0
 RQ ROW_BUFFER_HIT:        461
  ROW_BUFFER_MISS:        778
 AVG DBUS CONGESTED CYCLE:    3.87221
 WQ ROW_BUFFER_HIT:          0
  ROW_BUFFER_MISS:          0  FULL:          0
