WARNING: physical memory size is smaller than virtual memory size

*** ChampSim Multicore Out-of-Order Simulator ***

Warmup Instructions: 10000000
Simulation Instructions: 50000000
Number of CPUs: 1
Page size: 4096

CPU 0 Bimodal branch predictor
Basic BTB sets: 1024 ways: 8 indirect buffer size: 4096 RAS size: 64
Off-chip DRAM Size: 4 GiB Channels: 1 Width: 64-bit Data Rate: 3200 MT/s
Heartbeat CPU 0 instructions: 10000001 cycles: 2500048 heartbeat IPC: 3.99993 cumulative IPC: 3.99993 (Simulation time: 0 hr 0 min 15 sec) 
Warmup finished CPU 0 instructions: 10000001 cycles: 2500049 cumulative IPC: 3.99993 (Simulation time: 0 hr 0 min 15 sec) 

Warmup complete CPU 0 instructions: 10000001 cycles: 2500049 (Simulation time: 0 hr 0 min 15 sec) 

Heartbeat CPU 0 instructions: 20000002 cycles: 6079488 heartbeat IPC: 2.79374 cumulative IPC: 2.79374 (Simulation time: 0 hr 0 min 35 sec) 
Heartbeat CPU 0 instructions: 30000003 cycles: 9676130 heartbeat IPC: 2.78038 cumulative IPC: 2.78704 (Simulation time: 0 hr 0 min 55 sec) 
Heartbeat CPU 0 instructions: 40000003 cycles: 13272394 heartbeat IPC: 2.78067 cumulative IPC: 2.78491 (Simulation time: 0 hr 1 min 16 sec) 
Heartbeat CPU 0 instructions: 50000004 cycles: 16848633 heartbeat IPC: 2.79624 cumulative IPC: 2.78774 (Simulation time: 0 hr 1 min 36 sec) 
Heartbeat CPU 0 instructions: 60000002 cycles: 20408282 heartbeat IPC: 2.80927 cumulative IPC: 2.79202 (Simulation time: 0 hr 1 min 56 sec) 
Simulation finished CPU 0 instructions: 50000001 cycles: 17908234 cumulative IPC: 2.79202 (Simulation time: 0 hr 1 min 56 sec) 

Simulation complete CPU 0 instructions: 50000001 cycles: 17908234 (Simulation time: 0 hr 1 min 56 sec) 


ChampSim completed all CPUs

=== Simulation ===
CPU 0 runs benchmarks/625.x264_s-12B.champsimtrace.xz

Region of Interest Statistics

CPU 0 cumulative IPC: 2.79202 instructions: 50000001 cycles: 17908234
CPU 0 Branch Prediction Accuracy: 88.5854% MPKI: 4.91194 Average ROB Occupancy at Mispredict: 89.2424
Branch type MPKI
BRANCH_DIRECT_JUMP: 4e-05
BRANCH_INDIRECT: 2e-05
BRANCH_CONDITIONAL: 4.91052
BRANCH_DIRECT_CALL: 0
BRANCH_INDIRECT_CALL: 0.00136
BRANCH_RETURN: 0

LLC TOTAL       ACCESS:      11223  HIT:       2406  MISS:       8817
LLC LOAD         ACCESS:      10533  HIT:       2223  MISS:       8310
LLC RFO          ACCESS:        469  HIT:          2  MISS:        467
LLC PREFETCH     ACCESS:          0  HIT:          0  MISS:          0
LLC WRITE        ACCESS:        144  HIT:        144  MISS:          0
LLC TRANSLATION  ACCESS:         77  HIT:         37  MISS:         40
LLC PREFETCH  REQUESTED:          0  ISSUED:          0  USEFUL:          0  USELESS:          0
LLC AVERAGE MISS LATENCY: 111.544 cycles
cpu0_DTLB TOTAL       ACCESS:   10463648  HIT:   10454085  MISS:       9563
cpu0_DTLB LOAD         ACCESS:   10463648  HIT:   10454085  MISS:       9563
cpu0_DTLB RFO          ACCESS:          0  HIT:          0  MISS:          0
cpu0_DTLB PREFETCH     ACCESS:          0  HIT:          0  MISS:          0
cpu0_DTLB WRITE        ACCESS:          0  HIT:          0  MISS:          0
cpu0_DTLB TRANSLATION  ACCESS:          0  HIT:          0  MISS:          0
cpu0_DTLB PREFETCH  REQUESTED:          0  ISSUED:          0  USEFUL:          0  USELESS:          0
cpu0_DTLB AVERAGE MISS LATENCY: 7.26143 cycles
cpu0_ITLB TOTAL       ACCESS:     668663  HIT:     668663  MISS:          0
cpu0_ITLB LOAD         ACCESS:     668663  HIT:     668663  MISS:          0
cpu0_ITLB RFO          ACCESS:          0  HIT:          0  MISS:          0
cpu0_ITLB PREFETCH     ACCESS:          0  HIT:          0  MISS:          0
cpu0_ITLB WRITE        ACCESS:          0  HIT:          0  MISS:          0
cpu0_ITLB TRANSLATION  ACCESS:          0  HIT:          0  MISS:          0
cpu0_ITLB PREFETCH  REQUESTED:          0  ISSUED:          0  USEFUL:          0  USELESS:          0
cpu0_ITLB AVERAGE MISS LATENCY: -nan cycles
cpu0_L1D TOTAL       ACCESS:   11410856  HIT:   11361551  MISS:      49305
cpu0_L1D LOAD         ACCESS:    8387874  HIT:    8339226  MISS:      48648
cpu0_L1D RFO          ACCESS:          0  HIT:          0  MISS:          0
cpu0_L1D PREFETCH     ACCESS:          0  HIT:          0  MISS:          0
cpu0_L1D WRITE        ACCESS:    3022826  HIT:    3022317  MISS:        509
cpu0_L1D TRANSLATION  ACCESS:        156  HIT:          8  MISS:        148
cpu0_L1D PREFETCH  REQUESTED:          0  ISSUED:          0  USEFUL:          0  USELESS:          0
cpu0_L1D AVERAGE MISS LATENCY: 28.2919 cycles
cpu0_L1I TOTAL       ACCESS:     829598  HIT:     829595  MISS:          3
cpu0_L1I LOAD         ACCESS:     829598  HIT:     829595  MISS:          3
cpu0_L1I RFO          ACCESS:          0  HIT:          0  MISS:          0
cpu0_L1I PREFETCH     ACCESS:          0  HIT:          0  MISS:          0
cpu0_L1I WRITE        ACCESS:          0  HIT:          0  MISS:          0
cpu0_L1I TRANSLATION  ACCESS:          0  HIT:          0  MISS:          0
cpu0_L1I PREFETCH  REQUESTED:          0  ISSUED:          0  USEFUL:          0  USELESS:          0
cpu0_L1I AVERAGE MISS LATENCY: 131.334 cycles
cpu0_L2C TOTAL       ACCESS:      16783  HIT:       5652  MISS:      11131
cpu0_L2C LOAD         ACCESS:      15873  HIT:       5340  MISS:      10533
cpu0_L2C RFO          ACCESS:        474  HIT:          5  MISS:        469
cpu0_L2C PREFETCH     ACCESS:          0  HIT:          0  MISS:          0
cpu0_L2C WRITE        ACCESS:        288  HIT:        236  MISS:         52
cpu0_L2C TRANSLATION  ACCESS:        148  HIT:         71  MISS:         77
cpu0_L2C PREFETCH  REQUESTED:          0  ISSUED:          0  USEFUL:          0  USELESS:          0
cpu0_L2C AVERAGE MISS LATENCY: 109.055 cycles
cpu0_STLB TOTAL       ACCESS:       3378  HIT:       3222  MISS:        156
cpu0_STLB LOAD         ACCESS:       3378  HIT:       3222  MISS:        156
cpu0_STLB RFO          ACCESS:          0  HIT:          0  MISS:          0
cpu0_STLB PREFETCH     ACCESS:          0  HIT:          0  MISS:          0
cpu0_STLB WRITE        ACCESS:          0  HIT:          0  MISS:          0
cpu0_STLB TRANSLATION  ACCESS:          0  HIT:          0  MISS:          0
cpu0_STLB PREFETCH  REQUESTED:          0  ISSUED:          0  USEFUL:          0  USELESS:          0
cpu0_STLB AVERAGE MISS LATENCY: 270.866 cycles

DRAM Statistics
Channel 0
 RQ ROW_BUFFER_HIT:       6176
  ROW_BUFFER_MISS:       2641
 AVG DBUS CONGESTED CYCLE:    3.70443
 WQ ROW_BUFFER_HIT:          0
  ROW_BUFFER_MISS:          0  FULL:          0
