WARNING: physical memory size is smaller than virtual memory size

*** ChampSim Multicore Out-of-Order Simulator ***

Warmup Instructions: 10000000
Simulation Instructions: 50000000
Number of CPUs: 1
Page size: 4096

CPU 0 GAp branch predictor
Basic BTB sets: 1024 ways: 8 indirect buffer size: 4096 RAS size: 64
Off-chip DRAM Size: 4 GiB Channels: 1 Width: 64-bit Data Rate: 3200 MT/s
Heartbeat CPU 0 instructions: 10000000 cycles: 2548766 heartbeat IPC: 3.92347 cumulative IPC: 3.92347 (Simulation time: 0 hr 0 min 24 sec) 
Warmup finished CPU 0 instructions: 10000000 cycles: 2548767 cumulative IPC: 3.92347 (Simulation time: 0 hr 0 min 24 sec) 

Warmup complete CPU 0 instructions: 10000000 cycles: 2548767 (Simulation time: 0 hr 0 min 24 sec) 

Heartbeat CPU 0 instructions: 20000004 cycles: 6864979 heartbeat IPC: 2.31685 cumulative IPC: 2.31685 (Simulation time: 0 hr 1 min 2 sec) 
Heartbeat CPU 0 instructions: 30000001 cycles: 11141419 heartbeat IPC: 2.3384 cumulative IPC: 2.32758 (Simulation time: 0 hr 1 min 41 sec) 
Heartbeat CPU 0 instructions: 40000002 cycles: 15405295 heartbeat IPC: 2.34529 cumulative IPC: 2.33345 (Simulation time: 0 hr 2 min 21 sec) 
Heartbeat CPU 0 instructions: 50000002 cycles: 19682743 heartbeat IPC: 2.33785 cumulative IPC: 2.33455 (Simulation time: 0 hr 3 min 0 sec) 
Heartbeat CPU 0 instructions: 60000003 cycles: 26731649 heartbeat IPC: 1.41867 cumulative IPC: 2.06758 (Simulation time: 0 hr 3 min 49 sec) 
Simulation finished CPU 0 instructions: 50000003 cycles: 24182883 cumulative IPC: 2.06758 (Simulation time: 0 hr 3 min 49 sec) 

Simulation complete CPU 0 instructions: 50000003 cycles: 24182883 (Simulation time: 0 hr 3 min 49 sec) 


ChampSim completed all CPUs

=== Simulation ===
CPU 0 runs benchmarks/607.cactuBSSN_s-2421B.champsimtrace.xz

Region of Interest Statistics

CPU 0 cumulative IPC: 2.06758 instructions: 50000003 cycles: 24182883
CPU 0 Branch Prediction Accuracy: 91.7699% MPKI: 0.67736 Average ROB Occupancy at Mispredict: 194.673
Branch type MPKI
BRANCH_DIRECT_JUMP: 0.00124
BRANCH_INDIRECT: 0.00164
BRANCH_CONDITIONAL: 0.34654
BRANCH_DIRECT_CALL: 0.01318
BRANCH_INDIRECT_CALL: 6e-05
BRANCH_RETURN: 0.3147

LLC TOTAL       ACCESS:     325955  HIT:     147868  MISS:     178087
LLC LOAD         ACCESS:     262742  HIT:     111849  MISS:     150893
LLC RFO          ACCESS:      25220  HIT:        541  MISS:      24679
LLC PREFETCH     ACCESS:          0  HIT:          0  MISS:          0
LLC WRITE        ACCESS:      34338  HIT:      34319  MISS:         19
LLC TRANSLATION  ACCESS:       3655  HIT:       1159  MISS:       2496
LLC PREFETCH  REQUESTED:          0  ISSUED:          0  USEFUL:          0  USELESS:          0
LLC AVERAGE MISS LATENCY: 719.312 cycles
cpu0_DTLB TOTAL       ACCESS:   16765733  HIT:   13016035  MISS:    3749698
cpu0_DTLB LOAD         ACCESS:   16765733  HIT:   13016035  MISS:    3749698
cpu0_DTLB RFO          ACCESS:          0  HIT:          0  MISS:          0
cpu0_DTLB PREFETCH     ACCESS:          0  HIT:          0  MISS:          0
cpu0_DTLB WRITE        ACCESS:          0  HIT:          0  MISS:          0
cpu0_DTLB TRANSLATION  ACCESS:          0  HIT:          0  MISS:          0
cpu0_DTLB PREFETCH  REQUESTED:          0  ISSUED:          0  USEFUL:          0  USELESS:          0
cpu0_DTLB AVERAGE MISS LATENCY: 5.57226 cycles
cpu0_ITLB TOTAL       ACCESS:    5961144  HIT:    5961023  MISS:        121
cpu0_ITLB LOAD         ACCESS:    5961144  HIT:    5961023  MISS:        121
cpu0_ITLB RFO          ACCESS:          0  HIT:          0  MISS:          0
cpu0_ITLB PREFETCH     ACCESS:          0  HIT:          0  MISS:          0
cpu0_ITLB WRITE        ACCESS:          0  HIT:          0  MISS:          0
cpu0_ITLB TRANSLATION  ACCESS:          0  HIT:          0  MISS:          0
cpu0_ITLB PREFETCH  REQUESTED:          0  ISSUED:          0  USEFUL:          0  USELESS:          0
cpu0_ITLB AVERAGE MISS LATENCY: 203.645 cycles
cpu0_L1D TOTAL       ACCESS:   25734839  HIT:   15163519  MISS:   10571320
cpu0_L1D LOAD         ACCESS:   20500553  HIT:   11236801  MISS:    9263752
cpu0_L1D RFO          ACCESS:          0  HIT:          0  MISS:          0
cpu0_L1D PREFETCH     ACCESS:          0  HIT:          0  MISS:          0
cpu0_L1D WRITE        ACCESS:    5189864  HIT:    3926596  MISS:    1263268
cpu0_L1D TRANSLATION  ACCESS:      44422  HIT:        122  MISS:      44300
cpu0_L1D PREFETCH  REQUESTED:          0  ISSUED:          0  USEFUL:          0  USELESS:          0
cpu0_L1D AVERAGE MISS LATENCY: 16.7702 cycles
cpu0_L1I TOTAL       ACCESS:    8293819  HIT:    6494946  MISS:    1798873
cpu0_L1I LOAD         ACCESS:    8293819  HIT:    6494946  MISS:    1798873
cpu0_L1I RFO          ACCESS:          0  HIT:          0  MISS:          0
cpu0_L1I PREFETCH     ACCESS:          0  HIT:          0  MISS:          0
cpu0_L1I WRITE        ACCESS:          0  HIT:          0  MISS:          0
cpu0_L1I TRANSLATION  ACCESS:          0  HIT:          0  MISS:          0
cpu0_L1I PREFETCH  REQUESTED:          0  ISSUED:          0  USEFUL:          0  USELESS:          0
cpu0_L1I AVERAGE MISS LATENCY: 7.66501 cycles
cpu0_L2C TOTAL       ACCESS:    5371397  HIT:    5079758  MISS:     291639
cpu0_L2C LOAD         ACCESS:    4755840  HIT:    4493082  MISS:     262758
cpu0_L2C RFO          ACCESS:     305597  HIT:     280372  MISS:      25225
cpu0_L2C PREFETCH     ACCESS:          0  HIT:          0  MISS:          0
cpu0_L2C WRITE        ACCESS:     305450  HIT:     305449  MISS:          1
cpu0_L2C TRANSLATION  ACCESS:       4510  HIT:        855  MISS:       3655
cpu0_L2C PREFETCH  REQUESTED:          0  ISSUED:          0  USEFUL:          0  USELESS:          0
cpu0_L2C AVERAGE MISS LATENCY: 459.858 cycles
cpu0_STLB TOTAL       ACCESS:    2216182  HIT:    2213124  MISS:       3058
cpu0_STLB LOAD         ACCESS:    2216182  HIT:    2213124  MISS:       3058
cpu0_STLB RFO          ACCESS:          0  HIT:          0  MISS:          0
cpu0_STLB PREFETCH     ACCESS:          0  HIT:          0  MISS:          0
cpu0_STLB WRITE        ACCESS:          0  HIT:          0  MISS:          0
cpu0_STLB TRANSLATION  ACCESS:          0  HIT:          0  MISS:          0
cpu0_STLB PREFETCH  REQUESTED:          0  ISSUED:          0  USEFUL:          0  USELESS:          0
cpu0_STLB AVERAGE MISS LATENCY: 902.38 cycles

DRAM Statistics
Channel 0
 RQ ROW_BUFFER_HIT:      82190
  ROW_BUFFER_MISS:      95878
 AVG DBUS CONGESTED CYCLE:    3.97011
 WQ ROW_BUFFER_HIT:       5159
  ROW_BUFFER_MISS:      28888  FULL:          0
