WARNING: physical memory size is smaller than virtual memory size

*** ChampSim Multicore Out-of-Order Simulator ***

Warmup Instructions: 10000000
Simulation Instructions: 50000000
Number of CPUs: 1
Page size: 4096

CPU 0 GAp branch predictor
Basic BTB sets: 1024 ways: 8 indirect buffer size: 4096 RAS size: 64
Off-chip DRAM Size: 4 GiB Channels: 1 Width: 64-bit Data Rate: 3200 MT/s
Heartbeat CPU 0 instructions: 10000000 cycles: 2500048 heartbeat IPC: 3.99993 cumulative IPC: 3.99993 (Simulation time: 0 hr 0 min 15 sec) 
Warmup finished CPU 0 instructions: 10000000 cycles: 2500049 cumulative IPC: 3.99993 (Simulation time: 0 hr 0 min 15 sec) 

Warmup complete CPU 0 instructions: 10000000 cycles: 2500049 (Simulation time: 0 hr 0 min 15 sec) 

Heartbeat CPU 0 instructions: 20000002 cycles: 5246524 heartbeat IPC: 3.64104 cumulative IPC: 3.64104 (Simulation time: 0 hr 0 min 35 sec) 
Heartbeat CPU 0 instructions: 30000003 cycles: 7974538 heartbeat IPC: 3.66568 cumulative IPC: 3.65331 (Simulation time: 0 hr 0 min 55 sec) 
Heartbeat CPU 0 instructions: 40000002 cycles: 10705134 heartbeat IPC: 3.66221 cumulative IPC: 3.65627 (Simulation time: 0 hr 1 min 16 sec) 
Heartbeat CPU 0 instructions: 50000001 cycles: 13429192 heartbeat IPC: 3.671 cumulative IPC: 3.65994 (Simulation time: 0 hr 1 min 37 sec) 
Heartbeat CPU 0 instructions: 60000000 cycles: 16126981 heartbeat IPC: 3.70674 cumulative IPC: 3.66921 (Simulation time: 0 hr 1 min 58 sec) 
Simulation finished CPU 0 instructions: 50000000 cycles: 13626933 cumulative IPC: 3.66921 (Simulation time: 0 hr 1 min 58 sec) 

Simulation complete CPU 0 instructions: 50000000 cycles: 13626933 (Simulation time: 0 hr 1 min 58 sec) 


ChampSim completed all CPUs

=== Simulation ===
CPU 0 runs benchmarks/625.x264_s-12B.champsimtrace.xz

Region of Interest Statistics

CPU 0 cumulative IPC: 3.66921 instructions: 50000000 cycles: 13626933
CPU 0 Branch Prediction Accuracy: 98.1164% MPKI: 0.810581 Average ROB Occupancy at Mispredict: 254.851
Branch type MPKI
BRANCH_DIRECT_JUMP: 4.00001e-05
BRANCH_INDIRECT: 2.00001e-05
BRANCH_CONDITIONAL: 0.809161
BRANCH_DIRECT_CALL: 0
BRANCH_INDIRECT_CALL: 0.00136001
BRANCH_RETURN: 0

LLC TOTAL       ACCESS:      11999  HIT:       3182  MISS:       8817
LLC LOAD         ACCESS:      11329  HIT:       3019  MISS:       8310
LLC RFO          ACCESS:        471  HIT:          4  MISS:        467
LLC PREFETCH     ACCESS:          0  HIT:          0  MISS:          0
LLC WRITE        ACCESS:        147  HIT:        147  MISS:          0
LLC TRANSLATION  ACCESS:         52  HIT:         12  MISS:         40
LLC PREFETCH  REQUESTED:          0  ISSUED:          0  USEFUL:          0  USELESS:          0
LLC AVERAGE MISS LATENCY: 116.731 cycles
cpu0_DTLB TOTAL       ACCESS:    9885314  HIT:    9875535  MISS:       9779
cpu0_DTLB LOAD         ACCESS:    9885314  HIT:    9875535  MISS:       9779
cpu0_DTLB RFO          ACCESS:          0  HIT:          0  MISS:          0
cpu0_DTLB PREFETCH     ACCESS:          0  HIT:          0  MISS:          0
cpu0_DTLB WRITE        ACCESS:          0  HIT:          0  MISS:          0
cpu0_DTLB TRANSLATION  ACCESS:          0  HIT:          0  MISS:          0
cpu0_DTLB PREFETCH  REQUESTED:          0  ISSUED:          0  USEFUL:          0  USELESS:          0
cpu0_DTLB AVERAGE MISS LATENCY: 7.1039 cycles
cpu0_ITLB TOTAL       ACCESS:     768337  HIT:     768337  MISS:          0
cpu0_ITLB LOAD         ACCESS:     768337  HIT:     768337  MISS:          0
cpu0_ITLB RFO          ACCESS:          0  HIT:          0  MISS:          0
cpu0_ITLB PREFETCH     ACCESS:          0  HIT:          0  MISS:          0
cpu0_ITLB WRITE        ACCESS:          0  HIT:          0  MISS:          0
cpu0_ITLB TRANSLATION  ACCESS:          0  HIT:          0  MISS:          0
cpu0_ITLB PREFETCH  REQUESTED:          0  ISSUED:          0  USEFUL:          0  USELESS:          0
cpu0_ITLB AVERAGE MISS LATENCY: -nan cycles
cpu0_L1D TOTAL       ACCESS:   10825919  HIT:   10779087  MISS:      46832
cpu0_L1D LOAD         ACCESS:    7802924  HIT:    7756749  MISS:      46175
cpu0_L1D RFO          ACCESS:          0  HIT:          0  MISS:          0
cpu0_L1D PREFETCH     ACCESS:          0  HIT:          0  MISS:          0
cpu0_L1D WRITE        ACCESS:    3022839  HIT:    3022330  MISS:        509
cpu0_L1D TRANSLATION  ACCESS:        156  HIT:          8  MISS:        148
cpu0_L1D PREFETCH  REQUESTED:          0  ISSUED:          0  USEFUL:          0  USELESS:          0
cpu0_L1D AVERAGE MISS LATENCY: 31.0753 cycles
cpu0_L1I TOTAL       ACCESS:     926952  HIT:     926949  MISS:          3
cpu0_L1I LOAD         ACCESS:     926952  HIT:     926949  MISS:          3
cpu0_L1I RFO          ACCESS:          0  HIT:          0  MISS:          0
cpu0_L1I PREFETCH     ACCESS:          0  HIT:          0  MISS:          0
cpu0_L1I WRITE        ACCESS:          0  HIT:          0  MISS:          0
cpu0_L1I TRANSLATION  ACCESS:          0  HIT:          0  MISS:          0
cpu0_L1I PREFETCH  REQUESTED:          0  ISSUED:          0  USEFUL:          0  USELESS:          0
cpu0_L1I AVERAGE MISS LATENCY: 131 cycles
cpu0_L2C TOTAL       ACCESS:      16808  HIT:       4955  MISS:      11853
cpu0_L2C LOAD         ACCESS:      15878  HIT:       4549  MISS:      11329
cpu0_L2C RFO          ACCESS:        474  HIT:          3  MISS:        471
cpu0_L2C PREFETCH     ACCESS:          0  HIT:          0  MISS:          0
cpu0_L2C WRITE        ACCESS:        308  HIT:        307  MISS:          1
cpu0_L2C TRANSLATION  ACCESS:        148  HIT:         96  MISS:         52
cpu0_L2C PREFETCH  REQUESTED:          0  ISSUED:          0  USEFUL:          0  USELESS:          0
cpu0_L2C AVERAGE MISS LATENCY: 107.575 cycles
cpu0_STLB TOTAL       ACCESS:       3446  HIT:       3290  MISS:        156
cpu0_STLB LOAD         ACCESS:       3446  HIT:       3290  MISS:        156
cpu0_STLB RFO          ACCESS:          0  HIT:          0  MISS:          0
cpu0_STLB PREFETCH     ACCESS:          0  HIT:          0  MISS:          0
cpu0_STLB WRITE        ACCESS:          0  HIT:          0  MISS:          0
cpu0_STLB TRANSLATION  ACCESS:          0  HIT:          0  MISS:          0
cpu0_STLB PREFETCH  REQUESTED:          0  ISSUED:          0  USEFUL:          0  USELESS:          0
cpu0_STLB AVERAGE MISS LATENCY: 267.52 cycles

DRAM Statistics
Channel 0
 RQ ROW_BUFFER_HIT:       6115
  ROW_BUFFER_MISS:       2702
 AVG DBUS CONGESTED CYCLE:    3.72363
 WQ ROW_BUFFER_HIT:          0
  ROW_BUFFER_MISS:          0  FULL:          0
