WARNING: physical memory size is smaller than virtual memory size

*** ChampSim Multicore Out-of-Order Simulator ***

Warmup Instructions: 10000000
Simulation Instructions: 50000000
Number of CPUs: 1
Page size: 4096

CPU 0 GAp branch predictor
Basic BTB sets: 1024 ways: 8 indirect buffer size: 4096 RAS size: 64
Off-chip DRAM Size: 4 GiB Channels: 1 Width: 64-bit Data Rate: 3200 MT/s
Heartbeat CPU 0 instructions: 10000001 cycles: 2500152 heartbeat IPC: 3.99976 cumulative IPC: 3.99976 (Simulation time: 0 hr 0 min 16 sec) 
Warmup finished CPU 0 instructions: 10000001 cycles: 2500153 cumulative IPC: 3.99976 (Simulation time: 0 hr 0 min 16 sec) 

Warmup complete CPU 0 instructions: 10000001 cycles: 2500153 (Simulation time: 0 hr 0 min 16 sec) 

Heartbeat CPU 0 instructions: 20000001 cycles: 6980362 heartbeat IPC: 2.23204 cumulative IPC: 2.23204 (Simulation time: 0 hr 0 min 38 sec) 
Heartbeat CPU 0 instructions: 30000001 cycles: 11501623 heartbeat IPC: 2.21178 cumulative IPC: 2.22186 (Simulation time: 0 hr 1 min 0 sec) 
Heartbeat CPU 0 instructions: 40000002 cycles: 15994004 heartbeat IPC: 2.226 cumulative IPC: 2.22324 (Simulation time: 0 hr 1 min 23 sec) 
Heartbeat CPU 0 instructions: 50000000 cycles: 20497459 heartbeat IPC: 2.22052 cumulative IPC: 2.22256 (Simulation time: 0 hr 1 min 45 sec) 
Heartbeat CPU 0 instructions: 60000004 cycles: 24991723 heartbeat IPC: 2.22506 cumulative IPC: 2.22306 (Simulation time: 0 hr 2 min 8 sec) 
Simulation finished CPU 0 instructions: 50000003 cycles: 22491571 cumulative IPC: 2.22306 (Simulation time: 0 hr 2 min 8 sec) 

Simulation complete CPU 0 instructions: 50000003 cycles: 22491571 (Simulation time: 0 hr 2 min 8 sec) 


ChampSim completed all CPUs

=== Simulation ===
CPU 0 runs benchmarks/644.nab_s-12459B.champsimtrace.xz

Region of Interest Statistics

CPU 0 cumulative IPC: 2.22306 instructions: 50000003 cycles: 22491571
CPU 0 Branch Prediction Accuracy: 94.3499% MPKI: 8.07674 Average ROB Occupancy at Mispredict: 52.2972
Branch type MPKI
BRANCH_DIRECT_JUMP: 0.27594
BRANCH_INDIRECT: 0
BRANCH_CONDITIONAL: 7.8008
BRANCH_DIRECT_CALL: 0
BRANCH_INDIRECT_CALL: 0
BRANCH_RETURN: 0

LLC TOTAL       ACCESS:      34576  HIT:      25332  MISS:       9244
LLC LOAD         ACCESS:      20141  HIT:      18505  MISS:       1636
LLC RFO          ACCESS:       7607  HIT:         33  MISS:       7574
LLC PREFETCH     ACCESS:          0  HIT:          0  MISS:          0
LLC WRITE        ACCESS:       6705  HIT:       6705  MISS:          0
LLC TRANSLATION  ACCESS:        123  HIT:         89  MISS:         34
LLC PREFETCH  REQUESTED:          0  ISSUED:          0  USEFUL:          0  USELESS:          0
LLC AVERAGE MISS LATENCY: 86.2809 cycles
cpu0_DTLB TOTAL       ACCESS:   10925403  HIT:   10908883  MISS:      16520
cpu0_DTLB LOAD         ACCESS:   10925403  HIT:   10908883  MISS:      16520
cpu0_DTLB RFO          ACCESS:          0  HIT:          0  MISS:          0
cpu0_DTLB PREFETCH     ACCESS:          0  HIT:          0  MISS:          0
cpu0_DTLB WRITE        ACCESS:          0  HIT:          0  MISS:          0
cpu0_DTLB TRANSLATION  ACCESS:          0  HIT:          0  MISS:          0
cpu0_DTLB PREFETCH  REQUESTED:          0  ISSUED:          0  USEFUL:          0  USELESS:          0
cpu0_DTLB AVERAGE MISS LATENCY: 7.67622 cycles
cpu0_ITLB TOTAL       ACCESS:          0  HIT:          0  MISS:          0
cpu0_ITLB LOAD         ACCESS:          0  HIT:          0  MISS:          0
cpu0_ITLB RFO          ACCESS:          0  HIT:          0  MISS:          0
cpu0_ITLB PREFETCH     ACCESS:          0  HIT:          0  MISS:          0
cpu0_ITLB WRITE        ACCESS:          0  HIT:          0  MISS:          0
cpu0_ITLB TRANSLATION  ACCESS:          0  HIT:          0  MISS:          0
cpu0_ITLB PREFETCH  REQUESTED:          0  ISSUED:          0  USEFUL:          0  USELESS:          0
cpu0_ITLB AVERAGE MISS LATENCY: -nan cycles
cpu0_L1D TOTAL       ACCESS:   13654595  HIT:   13088482  MISS:     566113
cpu0_L1D LOAD         ACCESS:    8648480  HIT:    8220021  MISS:     428459
cpu0_L1D RFO          ACCESS:          0  HIT:          0  MISS:          0
cpu0_L1D PREFETCH     ACCESS:          0  HIT:          0  MISS:          0
cpu0_L1D WRITE        ACCESS:    5005975  HIT:    4868450  MISS:     137525
cpu0_L1D TRANSLATION  ACCESS:        140  HIT:         11  MISS:        129
cpu0_L1D PREFETCH  REQUESTED:          0  ISSUED:          0  USEFUL:          0  USELESS:          0
cpu0_L1D AVERAGE MISS LATENCY: 7.92414 cycles
cpu0_L1I TOTAL       ACCESS:          0  HIT:          0  MISS:          0
cpu0_L1I LOAD         ACCESS:          0  HIT:          0  MISS:          0
cpu0_L1I RFO          ACCESS:          0  HIT:          0  MISS:          0
cpu0_L1I PREFETCH     ACCESS:          0  HIT:          0  MISS:          0
cpu0_L1I WRITE        ACCESS:          0  HIT:          0  MISS:          0
cpu0_L1I TRANSLATION  ACCESS:          0  HIT:          0  MISS:          0
cpu0_L1I PREFETCH  REQUESTED:          0  ISSUED:          0  USEFUL:          0  USELESS:          0
cpu0_L1I AVERAGE MISS LATENCY: -nan cycles
cpu0_L2C TOTAL       ACCESS:     324869  HIT:     296992  MISS:      27877
cpu0_L2C LOAD         ACCESS:     291512  HIT:     271371  MISS:      20141
cpu0_L2C RFO          ACCESS:      16687  HIT:       9080  MISS:       7607
cpu0_L2C PREFETCH     ACCESS:          0  HIT:          0  MISS:          0
cpu0_L2C WRITE        ACCESS:      16541  HIT:      16535  MISS:          6
cpu0_L2C TRANSLATION  ACCESS:        129  HIT:          6  MISS:        123
cpu0_L2C PREFETCH  REQUESTED:          0  ISSUED:          0  USEFUL:          0  USELESS:          0
cpu0_L2C AVERAGE MISS LATENCY: 48.9389 cycles
cpu0_STLB TOTAL       ACCESS:      11013  HIT:      10873  MISS:        140
cpu0_STLB LOAD         ACCESS:      11013  HIT:      10873  MISS:        140
cpu0_STLB RFO          ACCESS:          0  HIT:          0  MISS:          0
cpu0_STLB PREFETCH     ACCESS:          0  HIT:          0  MISS:          0
cpu0_STLB WRITE        ACCESS:          0  HIT:          0  MISS:          0
cpu0_STLB TRANSLATION  ACCESS:          0  HIT:          0  MISS:          0
cpu0_STLB PREFETCH  REQUESTED:          0  ISSUED:          0  USEFUL:          0  USELESS:          0
cpu0_STLB AVERAGE MISS LATENCY: 275.322 cycles

DRAM Statistics
Channel 0
 RQ ROW_BUFFER_HIT:       7767
  ROW_BUFFER_MISS:       1477
 AVG DBUS CONGESTED CYCLE:    3.59628
 WQ ROW_BUFFER_HIT:          0
  ROW_BUFFER_MISS:          0  FULL:          0
