WARNING: physical memory size is smaller than virtual memory size

*** ChampSim Multicore Out-of-Order Simulator ***

Warmup Instructions: 10000000
Simulation Instructions: 50000000
Number of CPUs: 1
Page size: 4096

CPU 0 GAp branch predictor
Basic BTB sets: 1024 ways: 8 indirect buffer size: 4096 RAS size: 64
Off-chip DRAM Size: 4 GiB Channels: 1 Width: 64-bit Data Rate: 3200 MT/s
Heartbeat CPU 0 instructions: 10000002 cycles: 2508339 heartbeat IPC: 3.98671 cumulative IPC: 3.98671 (Simulation time: 0 hr 0 min 15 sec) 
Warmup finished CPU 0 instructions: 10000002 cycles: 2508340 cumulative IPC: 3.98671 (Simulation time: 0 hr 0 min 15 sec) 

Warmup complete CPU 0 instructions: 10000002 cycles: 2508340 (Simulation time: 0 hr 0 min 15 sec) 

Heartbeat CPU 0 instructions: 20000001 cycles: 8131933 heartbeat IPC: 1.77823 cumulative IPC: 1.77823 (Simulation time: 0 hr 0 min 38 sec) 
Heartbeat CPU 0 instructions: 30000000 cycles: 13789141 heartbeat IPC: 1.76766 cumulative IPC: 1.77293 (Simulation time: 0 hr 1 min 1 sec) 
Heartbeat CPU 0 instructions: 40000000 cycles: 19403699 heartbeat IPC: 1.78109 cumulative IPC: 1.77564 (Simulation time: 0 hr 1 min 24 sec) 
Heartbeat CPU 0 instructions: 50000002 cycles: 25040597 heartbeat IPC: 1.77403 cumulative IPC: 1.77524 (Simulation time: 0 hr 1 min 48 sec) 
Heartbeat CPU 0 instructions: 60000001 cycles: 30739819 heartbeat IPC: 1.75463 cumulative IPC: 1.77108 (Simulation time: 0 hr 2 min 11 sec) 
Simulation finished CPU 0 instructions: 50000000 cycles: 28231483 cumulative IPC: 1.77108 (Simulation time: 0 hr 2 min 11 sec) 

Simulation complete CPU 0 instructions: 50000000 cycles: 28231483 (Simulation time: 0 hr 2 min 11 sec) 


ChampSim completed all CPUs

=== Simulation ===
CPU 0 runs benchmarks/657.xz_s-4994B.champsimtrace.xz

Region of Interest Statistics

CPU 0 cumulative IPC: 1.77108 instructions: 50000000 cycles: 28231483
CPU 0 Branch Prediction Accuracy: 86.5674% MPKI: 14.0803 Average ROB Occupancy at Mispredict: 26.8245
Branch type MPKI
BRANCH_DIRECT_JUMP: 0.000120001
BRANCH_INDIRECT: 0.00102001
BRANCH_CONDITIONAL: 14.0791
BRANCH_DIRECT_CALL: 0
BRANCH_INDIRECT_CALL: 0
BRANCH_RETURN: 2.00001e-05

LLC TOTAL       ACCESS:      10234  HIT:       1157  MISS:       9077
LLC LOAD         ACCESS:       2601  HIT:         38  MISS:       2563
LLC RFO          ACCESS:       6502  HIT:          0  MISS:       6502
LLC PREFETCH     ACCESS:          0  HIT:          0  MISS:          0
LLC WRITE        ACCESS:       1119  HIT:       1119  MISS:          0
LLC TRANSLATION  ACCESS:         12  HIT:          0  MISS:         12
LLC PREFETCH  REQUESTED:          0  ISSUED:          0  USEFUL:          0  USELESS:          0
LLC AVERAGE MISS LATENCY: 89.7157 cycles
cpu0_DTLB TOTAL       ACCESS:    7181420  HIT:    7179876  MISS:       1544
cpu0_DTLB LOAD         ACCESS:    7181420  HIT:    7179876  MISS:       1544
cpu0_DTLB RFO          ACCESS:          0  HIT:          0  MISS:          0
cpu0_DTLB PREFETCH     ACCESS:          0  HIT:          0  MISS:          0
cpu0_DTLB WRITE        ACCESS:          0  HIT:          0  MISS:          0
cpu0_DTLB TRANSLATION  ACCESS:          0  HIT:          0  MISS:          0
cpu0_DTLB PREFETCH  REQUESTED:          0  ISSUED:          0  USEFUL:          0  USELESS:          0
cpu0_DTLB AVERAGE MISS LATENCY: 26.6905 cycles
cpu0_ITLB TOTAL       ACCESS:     525092  HIT:     525092  MISS:          0
cpu0_ITLB LOAD         ACCESS:     525092  HIT:     525092  MISS:          0
cpu0_ITLB RFO          ACCESS:          0  HIT:          0  MISS:          0
cpu0_ITLB PREFETCH     ACCESS:          0  HIT:          0  MISS:          0
cpu0_ITLB WRITE        ACCESS:          0  HIT:          0  MISS:          0
cpu0_ITLB TRANSLATION  ACCESS:          0  HIT:          0  MISS:          0
cpu0_ITLB PREFETCH  REQUESTED:          0  ISSUED:          0  USEFUL:          0  USELESS:          0
cpu0_ITLB AVERAGE MISS LATENCY: -nan cycles
cpu0_L1D TOTAL       ACCESS:    8182560  HIT:    8079810  MISS:     102750
cpu0_L1D LOAD         ACCESS:    5052377  HIT:    5021437  MISS:      30940
cpu0_L1D RFO          ACCESS:          0  HIT:          0  MISS:          0
cpu0_L1D PREFETCH     ACCESS:          0  HIT:          0  MISS:          0
cpu0_L1D WRITE        ACCESS:    3130008  HIT:    3058302  MISS:      71706
cpu0_L1D TRANSLATION  ACCESS:        175  HIT:         71  MISS:        104
cpu0_L1D PREFETCH  REQUESTED:          0  ISSUED:          0  USEFUL:          0  USELESS:          0
cpu0_L1D AVERAGE MISS LATENCY: 11.7442 cycles
cpu0_L1I TOTAL       ACCESS:     606453  HIT:     606446  MISS:          7
cpu0_L1I LOAD         ACCESS:     606453  HIT:     606446  MISS:          7
cpu0_L1I RFO          ACCESS:          0  HIT:          0  MISS:          0
cpu0_L1I PREFETCH     ACCESS:          0  HIT:          0  MISS:          0
cpu0_L1I WRITE        ACCESS:          0  HIT:          0  MISS:          0
cpu0_L1I TRANSLATION  ACCESS:          0  HIT:          0  MISS:          0
cpu0_L1I PREFETCH  REQUESTED:          0  ISSUED:          0  USEFUL:          0  USELESS:          0
cpu0_L1I AVERAGE MISS LATENCY: 169.858 cycles
cpu0_L2C TOTAL       ACCESS:      25591  HIT:      16454  MISS:       9137
cpu0_L2C LOAD         ACCESS:       9142  HIT:       6541  MISS:       2601
cpu0_L2C RFO          ACCESS:       9441  HIT:       2939  MISS:       6502
cpu0_L2C PREFETCH     ACCESS:          0  HIT:          0  MISS:          0
cpu0_L2C WRITE        ACCESS:       6924  HIT:       6902  MISS:         22
cpu0_L2C TRANSLATION  ACCESS:         84  HIT:         72  MISS:         12
cpu0_L2C PREFETCH  REQUESTED:          0  ISSUED:          0  USEFUL:          0  USELESS:          0
cpu0_L2C AVERAGE MISS LATENCY: 110.075 cycles
cpu0_STLB TOTAL       ACCESS:        309  HIT:        154  MISS:        155
cpu0_STLB LOAD         ACCESS:        309  HIT:        154  MISS:        155
cpu0_STLB RFO          ACCESS:          0  HIT:          0  MISS:          0
cpu0_STLB PREFETCH     ACCESS:          0  HIT:          0  MISS:          0
cpu0_STLB WRITE        ACCESS:          0  HIT:          0  MISS:          0
cpu0_STLB TRANSLATION  ACCESS:          0  HIT:          0  MISS:          0
cpu0_STLB PREFETCH  REQUESTED:          0  ISSUED:          0  USEFUL:          0  USELESS:          0
cpu0_STLB AVERAGE MISS LATENCY: 248.923 cycles

DRAM Statistics
Channel 0
 RQ ROW_BUFFER_HIT:       8551
  ROW_BUFFER_MISS:        526
 AVG DBUS CONGESTED CYCLE:     3.9076
 WQ ROW_BUFFER_HIT:          0
  ROW_BUFFER_MISS:          0  FULL:          0
