WARNING: physical memory size is smaller than virtual memory size

*** ChampSim Multicore Out-of-Order Simulator ***

Warmup Instructions: 10000000
Simulation Instructions: 50000000
Number of CPUs: 1
Page size: 4096

CPU 0 Bimodal branch predictor
Basic BTB sets: 1024 ways: 8 indirect buffer size: 4096 RAS size: 64
Off-chip DRAM Size: 4 GiB Channels: 1 Width: 64-bit Data Rate: 3200 MT/s
Heartbeat CPU 0 instructions: 10000003 cycles: 2502118 heartbeat IPC: 3.99662 cumulative IPC: 3.99662 (Simulation time: 0 hr 0 min 21 sec) 
Warmup finished CPU 0 instructions: 10000003 cycles: 2502119 cumulative IPC: 3.99662 (Simulation time: 0 hr 0 min 21 sec) 

Warmup complete CPU 0 instructions: 10000003 cycles: 2502119 (Simulation time: 0 hr 0 min 21 sec) 

Heartbeat CPU 0 instructions: 20000002 cycles: 25155141 heartbeat IPC: 0.441443 cumulative IPC: 0.441443 (Simulation time: 0 hr 1 min 26 sec) 
Heartbeat CPU 0 instructions: 30000004 cycles: 47096973 heartbeat IPC: 0.455751 cumulative IPC: 0.448483 (Simulation time: 0 hr 2 min 30 sec) 
Heartbeat CPU 0 instructions: 40000003 cycles: 68643000 heartbeat IPC: 0.464123 cumulative IPC: 0.453578 (Simulation time: 0 hr 3 min 33 sec) 
Heartbeat CPU 0 instructions: 50000000 cycles: 90604702 heartbeat IPC: 0.455338 cumulative IPC: 0.454017 (Simulation time: 0 hr 4 min 37 sec) 
Heartbeat CPU 0 instructions: 60000001 cycles: 111060825 heartbeat IPC: 0.488852 cumulative IPC: 0.460581 (Simulation time: 0 hr 5 min 38 sec) 
Simulation finished CPU 0 instructions: 50000003 cycles: 108558708 cumulative IPC: 0.460581 (Simulation time: 0 hr 5 min 38 sec) 

Simulation complete CPU 0 instructions: 50000003 cycles: 108558708 (Simulation time: 0 hr 5 min 38 sec) 


ChampSim completed all CPUs

=== Simulation ===
CPU 0 runs benchmarks/620.omnetpp_s-141B.champsimtrace.xz

Region of Interest Statistics

CPU 0 cumulative IPC: 0.460581 instructions: 50000003 cycles: 108558708
CPU 0 Branch Prediction Accuracy: 91.4963% MPKI: 17.9017 Average ROB Occupancy at Mispredict: 41.8431
Branch type MPKI
BRANCH_DIRECT_JUMP: 0.83684
BRANCH_INDIRECT: 0.35484
BRANCH_CONDITIONAL: 15.4062
BRANCH_DIRECT_CALL: 0.00142
BRANCH_INDIRECT_CALL: 0.85714
BRANCH_RETURN: 0.44522

LLC TOTAL       ACCESS:    1347339  HIT:     594142  MISS:     753197
LLC LOAD         ACCESS:     710500  HIT:     230191  MISS:     480309
LLC RFO          ACCESS:      95290  HIT:      38667  MISS:      56623
LLC PREFETCH     ACCESS:          0  HIT:          0  MISS:          0
LLC WRITE        ACCESS:     305819  HIT:     296636  MISS:       9183
LLC TRANSLATION  ACCESS:     235730  HIT:      28648  MISS:     207082
LLC PREFETCH  REQUESTED:          0  ISSUED:          0  USEFUL:          0  USELESS:          0
LLC AVERAGE MISS LATENCY: 199.118 cycles
cpu0_DTLB TOTAL       ACCESS:   18147870  HIT:   16579739  MISS:    1568131
cpu0_DTLB LOAD         ACCESS:   18147870  HIT:   16579739  MISS:    1568131
cpu0_DTLB RFO          ACCESS:          0  HIT:          0  MISS:          0
cpu0_DTLB PREFETCH     ACCESS:          0  HIT:          0  MISS:          0
cpu0_DTLB WRITE        ACCESS:          0  HIT:          0  MISS:          0
cpu0_DTLB TRANSLATION  ACCESS:          0  HIT:          0  MISS:          0
cpu0_DTLB PREFETCH  REQUESTED:          0  ISSUED:          0  USEFUL:          0  USELESS:          0
cpu0_DTLB AVERAGE MISS LATENCY: 46.7649 cycles
cpu0_ITLB TOTAL       ACCESS:    3935127  HIT:    3820605  MISS:     114522
cpu0_ITLB LOAD         ACCESS:    3935127  HIT:    3820605  MISS:     114522
cpu0_ITLB RFO          ACCESS:          0  HIT:          0  MISS:          0
cpu0_ITLB PREFETCH     ACCESS:          0  HIT:          0  MISS:          0
cpu0_ITLB WRITE        ACCESS:          0  HIT:          0  MISS:          0
cpu0_ITLB TRANSLATION  ACCESS:          0  HIT:          0  MISS:          0
cpu0_ITLB PREFETCH  REQUESTED:          0  ISSUED:          0  USEFUL:          0  USELESS:          0
cpu0_ITLB AVERAGE MISS LATENCY: 5.16187 cycles
cpu0_L1D TOTAL       ACCESS:   21622115  HIT:   19574941  MISS:    2047174
cpu0_L1D LOAD         ACCESS:   12046940  HIT:   10681285  MISS:    1365655
cpu0_L1D RFO          ACCESS:          0  HIT:          0  MISS:          0
cpu0_L1D PREFETCH     ACCESS:          0  HIT:          0  MISS:          0
cpu0_L1D WRITE        ACCESS:    9228935  HIT:    8832206  MISS:     396729
cpu0_L1D TRANSLATION  ACCESS:     346240  HIT:      61450  MISS:     284790
cpu0_L1D PREFETCH  REQUESTED:          0  ISSUED:          0  USEFUL:          0  USELESS:          0
cpu0_L1D AVERAGE MISS LATENCY: 90.303 cycles
cpu0_L1I TOTAL       ACCESS:    4309628  HIT:    4272165  MISS:      37463
cpu0_L1I LOAD         ACCESS:    4309628  HIT:    4272165  MISS:      37463
cpu0_L1I RFO          ACCESS:          0  HIT:          0  MISS:          0
cpu0_L1I PREFETCH     ACCESS:          0  HIT:          0  MISS:          0
cpu0_L1I WRITE        ACCESS:          0  HIT:          0  MISS:          0
cpu0_L1I TRANSLATION  ACCESS:          0  HIT:          0  MISS:          0
cpu0_L1I PREFETCH  REQUESTED:          0  ISSUED:          0  USEFUL:          0  USELESS:          0
cpu0_L1I AVERAGE MISS LATENCY: 16.4572 cycles
cpu0_L2C TOTAL       ACCESS:    1663818  HIT:     464949  MISS:    1198869
cpu0_L2C LOAD         ACCESS:     880360  HIT:     169859  MISS:     710501
cpu0_L2C RFO          ACCESS:     113955  HIT:      18665  MISS:      95290
cpu0_L2C PREFETCH     ACCESS:          0  HIT:          0  MISS:          0
cpu0_L2C WRITE        ACCESS:     385122  HIT:     227774  MISS:     157348
cpu0_L2C TRANSLATION  ACCESS:     284381  HIT:      48651  MISS:     235730
cpu0_L2C PREFETCH  REQUESTED:          0  ISSUED:          0  USEFUL:          0  USELESS:          0
cpu0_L2C AVERAGE MISS LATENCY: 143.098 cycles
cpu0_STLB TOTAL       ACCESS:    1081785  HIT:     836904  MISS:     244881
cpu0_STLB LOAD         ACCESS:    1081785  HIT:     836904  MISS:     244881
cpu0_STLB RFO          ACCESS:          0  HIT:          0  MISS:          0
cpu0_STLB PREFETCH     ACCESS:          0  HIT:          0  MISS:          0
cpu0_STLB WRITE        ACCESS:          0  HIT:          0  MISS:          0
cpu0_STLB TRANSLATION  ACCESS:          0  HIT:          0  MISS:          0
cpu0_STLB PREFETCH  REQUESTED:          0  ISSUED:          0  USEFUL:          0  USELESS:          0
cpu0_STLB AVERAGE MISS LATENCY: 265.4 cycles

DRAM Statistics
Channel 0
 RQ ROW_BUFFER_HIT:      58002
  ROW_BUFFER_MISS:     685967
 AVG DBUS CONGESTED CYCLE:    3.84503
 WQ ROW_BUFFER_HIT:      67853
  ROW_BUFFER_MISS:     121177  FULL:          0
