WARNING: physical memory size is smaller than virtual memory size

*** ChampSim Multicore Out-of-Order Simulator ***

Warmup Instructions: 10000000
Simulation Instructions: 50000000
Number of CPUs: 1
Page size: 4096

CPU 0 Bimodal branch predictor
Basic BTB sets: 1024 ways: 8 indirect buffer size: 4096 RAS size: 64
Off-chip DRAM Size: 4 GiB Channels: 1 Width: 64-bit Data Rate: 3200 MT/s
Heartbeat CPU 0 instructions: 10000001 cycles: 2500046 heartbeat IPC: 3.99993 cumulative IPC: 3.99993 (Simulation time: 0 hr 0 min 16 sec) 
Warmup finished CPU 0 instructions: 10000001 cycles: 2500047 cumulative IPC: 3.99993 (Simulation time: 0 hr 0 min 16 sec) 

Warmup complete CPU 0 instructions: 10000001 cycles: 2500047 (Simulation time: 0 hr 0 min 16 sec) 

Heartbeat CPU 0 instructions: 20000000 cycles: 9007295 heartbeat IPC: 1.53675 cumulative IPC: 1.53675 (Simulation time: 0 hr 0 min 42 sec) 
Heartbeat CPU 0 instructions: 30000001 cycles: 15517337 heartbeat IPC: 1.53609 cumulative IPC: 1.53642 (Simulation time: 0 hr 1 min 9 sec) 
Heartbeat CPU 0 instructions: 40000002 cycles: 22013445 heartbeat IPC: 1.53939 cumulative IPC: 1.53741 (Simulation time: 0 hr 1 min 35 sec) 
Heartbeat CPU 0 instructions: 50000000 cycles: 28552398 heartbeat IPC: 1.5293 cumulative IPC: 1.53538 (Simulation time: 0 hr 2 min 1 sec) 
Heartbeat CPU 0 instructions: 60000000 cycles: 35037159 heartbeat IPC: 1.54208 cumulative IPC: 1.53671 (Simulation time: 0 hr 2 min 28 sec) 
Simulation finished CPU 0 instructions: 50000002 cycles: 32537117 cumulative IPC: 1.53671 (Simulation time: 0 hr 2 min 28 sec) 

Simulation complete CPU 0 instructions: 50000002 cycles: 32537117 (Simulation time: 0 hr 2 min 28 sec) 


ChampSim completed all CPUs

=== Simulation ===
CPU 0 runs benchmarks/623.xalancbmk_s-165B.champsimtrace.xz

Region of Interest Statistics

CPU 0 cumulative IPC: 1.53671 instructions: 50000002 cycles: 32537117
CPU 0 Branch Prediction Accuracy: 96.5202% MPKI: 9.7045 Average ROB Occupancy at Mispredict: 53.5646
Branch type MPKI
BRANCH_DIRECT_JUMP: 0
BRANCH_INDIRECT: 0
BRANCH_CONDITIONAL: 9.7045
BRANCH_DIRECT_CALL: 0
BRANCH_INDIRECT_CALL: 0
BRANCH_RETURN: 0

LLC TOTAL       ACCESS:     951400  HIT:     853194  MISS:      98206
LLC LOAD         ACCESS:     950686  HIT:     852712  MISS:      97974
LLC RFO          ACCESS:        280  HIT:        108  MISS:        172
LLC PREFETCH     ACCESS:          0  HIT:          0  MISS:          0
LLC WRITE        ACCESS:        374  HIT:        372  MISS:          2
LLC TRANSLATION  ACCESS:         60  HIT:          2  MISS:         58
LLC PREFETCH  REQUESTED:          0  ISSUED:          0  USEFUL:          0  USELESS:          0
LLC AVERAGE MISS LATENCY: 82.9469 cycles
cpu0_DTLB TOTAL       ACCESS:   14317864  HIT:   14211725  MISS:     106139
cpu0_DTLB LOAD         ACCESS:   14317864  HIT:   14211725  MISS:     106139
cpu0_DTLB RFO          ACCESS:          0  HIT:          0  MISS:          0
cpu0_DTLB PREFETCH     ACCESS:          0  HIT:          0  MISS:          0
cpu0_DTLB WRITE        ACCESS:          0  HIT:          0  MISS:          0
cpu0_DTLB TRANSLATION  ACCESS:          0  HIT:          0  MISS:          0
cpu0_DTLB PREFETCH  REQUESTED:          0  ISSUED:          0  USEFUL:          0  USELESS:          0
cpu0_DTLB AVERAGE MISS LATENCY: 1.59627 cycles
cpu0_ITLB TOTAL       ACCESS:          0  HIT:          0  MISS:          0
cpu0_ITLB LOAD         ACCESS:          0  HIT:          0  MISS:          0
cpu0_ITLB RFO          ACCESS:          0  HIT:          0  MISS:          0
cpu0_ITLB PREFETCH     ACCESS:          0  HIT:          0  MISS:          0
cpu0_ITLB WRITE        ACCESS:          0  HIT:          0  MISS:          0
cpu0_ITLB TRANSLATION  ACCESS:          0  HIT:          0  MISS:          0
cpu0_ITLB PREFETCH  REQUESTED:          0  ISSUED:          0  USEFUL:          0  USELESS:          0
cpu0_ITLB AVERAGE MISS LATENCY: -nan cycles
cpu0_L1D TOTAL       ACCESS:   14808749  HIT:   10891913  MISS:    3916836
cpu0_L1D LOAD         ACCESS:   14152421  HIT:   10237120  MISS:    3915301
cpu0_L1D RFO          ACCESS:          0  HIT:          0  MISS:          0
cpu0_L1D PREFETCH     ACCESS:          0  HIT:          0  MISS:          0
cpu0_L1D WRITE        ACCESS:     656260  HIT:     654793  MISS:       1467
cpu0_L1D TRANSLATION  ACCESS:         68  HIT:          0  MISS:         68
cpu0_L1D PREFETCH  REQUESTED:          0  ISSUED:          0  USEFUL:          0  USELESS:          0
cpu0_L1D AVERAGE MISS LATENCY: 9.65187 cycles
cpu0_L1I TOTAL       ACCESS:          0  HIT:          0  MISS:          0
cpu0_L1I LOAD         ACCESS:          0  HIT:          0  MISS:          0
cpu0_L1I RFO          ACCESS:          0  HIT:          0  MISS:          0
cpu0_L1I PREFETCH     ACCESS:          0  HIT:          0  MISS:          0
cpu0_L1I WRITE        ACCESS:          0  HIT:          0  MISS:          0
cpu0_L1I TRANSLATION  ACCESS:          0  HIT:          0  MISS:          0
cpu0_L1I PREFETCH  REQUESTED:          0  ISSUED:          0  USEFUL:          0  USELESS:          0
cpu0_L1I AVERAGE MISS LATENCY: -nan cycles
cpu0_L2C TOTAL       ACCESS:     951617  HIT:        592  MISS:     951025
cpu0_L2C LOAD         ACCESS:     950903  HIT:        218  MISS:     950685
cpu0_L2C RFO          ACCESS:        280  HIT:          0  MISS:        280
cpu0_L2C PREFETCH     ACCESS:          0  HIT:          0  MISS:          0
cpu0_L2C WRITE        ACCESS:        374  HIT:        374  MISS:          0
cpu0_L2C TRANSLATION  ACCESS:         60  HIT:          0  MISS:         60
cpu0_L2C PREFETCH  REQUESTED:          0  ISSUED:          0  USEFUL:          0  USELESS:          0
cpu0_L2C AVERAGE MISS LATENCY: 28.6687 cycles
cpu0_STLB TOTAL       ACCESS:      17499  HIT:      17439  MISS:         60
cpu0_STLB LOAD         ACCESS:      17499  HIT:      17439  MISS:         60
cpu0_STLB RFO          ACCESS:          0  HIT:          0  MISS:          0
cpu0_STLB PREFETCH     ACCESS:          0  HIT:          0  MISS:          0
cpu0_STLB WRITE        ACCESS:          0  HIT:          0  MISS:          0
cpu0_STLB TRANSLATION  ACCESS:          0  HIT:          0  MISS:          0
cpu0_STLB PREFETCH  REQUESTED:          0  ISSUED:          0  USEFUL:          0  USELESS:          0
cpu0_STLB AVERAGE MISS LATENCY: 489.184 cycles

DRAM Statistics
Channel 0
 RQ ROW_BUFFER_HIT:      90075
  ROW_BUFFER_MISS:       8129
 AVG DBUS CONGESTED CYCLE:    3.84873
 WQ ROW_BUFFER_HIT:          0
  ROW_BUFFER_MISS:        187  FULL:          0
