WARNING: physical memory size is smaller than virtual memory size

*** ChampSim Multicore Out-of-Order Simulator ***

Warmup Instructions: 10000000
Simulation Instructions: 50000000
Number of CPUs: 1
Page size: 4096

CPU 0 Bimodal branch predictor
Basic BTB sets: 1024 ways: 8 indirect buffer size: 4096 RAS size: 64
Off-chip DRAM Size: 4 GiB Channels: 1 Width: 64-bit Data Rate: 3200 MT/s
Heartbeat CPU 0 instructions: 10000003 cycles: 2500045 heartbeat IPC: 3.99993 cumulative IPC: 3.99993 (Simulation time: 0 hr 0 min 17 sec) 
Warmup finished CPU 0 instructions: 10000003 cycles: 2500046 cumulative IPC: 3.99993 (Simulation time: 0 hr 0 min 17 sec) 

Warmup complete CPU 0 instructions: 10000003 cycles: 2500046 (Simulation time: 0 hr 0 min 17 sec) 

Heartbeat CPU 0 instructions: 20000004 cycles: 10834912 heartbeat IPC: 1.19978 cumulative IPC: 1.19978 (Simulation time: 0 hr 1 min 1 sec) 
Heartbeat CPU 0 instructions: 30000000 cycles: 19187024 heartbeat IPC: 1.19731 cumulative IPC: 1.19854 (Simulation time: 0 hr 1 min 45 sec) 
Heartbeat CPU 0 instructions: 40000002 cycles: 27539018 heartbeat IPC: 1.19732 cumulative IPC: 1.19814 (Simulation time: 0 hr 2 min 29 sec) 
Heartbeat CPU 0 instructions: 50000004 cycles: 35899391 heartbeat IPC: 1.19612 cumulative IPC: 1.19763 (Simulation time: 0 hr 3 min 14 sec) 
Heartbeat CPU 0 instructions: 60000004 cycles: 44220474 heartbeat IPC: 1.20177 cumulative IPC: 1.19846 (Simulation time: 0 hr 3 min 58 sec) 
Simulation finished CPU 0 instructions: 50000001 cycles: 41720429 cumulative IPC: 1.19846 (Simulation time: 0 hr 3 min 58 sec) 

Simulation complete CPU 0 instructions: 50000001 cycles: 41720429 (Simulation time: 0 hr 3 min 58 sec) 


ChampSim completed all CPUs

=== Simulation ===
CPU 0 runs benchmarks/649.fotonik3d_s-1176B.champsimtrace.xz

Region of Interest Statistics

CPU 0 cumulative IPC: 1.19846 instructions: 50000001 cycles: 41720429
CPU 0 Branch Prediction Accuracy: 99.9751% MPKI: 0.00438 Average ROB Occupancy at Mispredict: 352
Branch type MPKI
BRANCH_DIRECT_JUMP: 0
BRANCH_INDIRECT: 0
BRANCH_CONDITIONAL: 0.00438
BRANCH_DIRECT_CALL: 0
BRANCH_INDIRECT_CALL: 0
BRANCH_RETURN: 0

LLC TOTAL       ACCESS:     876818  HIT:         33  MISS:     876785
LLC LOAD         ACCESS:     438504  HIT:         26  MISS:     438478
LLC RFO          ACCESS:          0  HIT:          0  MISS:          0
LLC PREFETCH     ACCESS:          0  HIT:          0  MISS:          0
LLC WRITE        ACCESS:     438264  HIT:          0  MISS:     438264
LLC TRANSLATION  ACCESS:         50  HIT:          7  MISS:         43
LLC PREFETCH  REQUESTED:          0  ISSUED:          0  USEFUL:          0  USELESS:          0
LLC AVERAGE MISS LATENCY: 144.75 cycles
cpu0_DTLB TOTAL       ACCESS:   13467318  HIT:   13378608  MISS:      88710
cpu0_DTLB LOAD         ACCESS:   13467318  HIT:   13378608  MISS:      88710
cpu0_DTLB RFO          ACCESS:          0  HIT:          0  MISS:          0
cpu0_DTLB PREFETCH     ACCESS:          0  HIT:          0  MISS:          0
cpu0_DTLB WRITE        ACCESS:          0  HIT:          0  MISS:          0
cpu0_DTLB TRANSLATION  ACCESS:          0  HIT:          0  MISS:          0
cpu0_DTLB PREFETCH  REQUESTED:          0  ISSUED:          0  USEFUL:          0  USELESS:          0
cpu0_DTLB AVERAGE MISS LATENCY: 17.3387 cycles
cpu0_ITLB TOTAL       ACCESS:          0  HIT:          0  MISS:          0
cpu0_ITLB LOAD         ACCESS:          0  HIT:          0  MISS:          0
cpu0_ITLB RFO          ACCESS:          0  HIT:          0  MISS:          0
cpu0_ITLB PREFETCH     ACCESS:          0  HIT:          0  MISS:          0
cpu0_ITLB WRITE        ACCESS:          0  HIT:          0  MISS:          0
cpu0_ITLB TRANSLATION  ACCESS:          0  HIT:          0  MISS:          0
cpu0_ITLB PREFETCH  REQUESTED:          0  ISSUED:          0  USEFUL:          0  USELESS:          0
cpu0_ITLB AVERAGE MISS LATENCY: -nan cycles
cpu0_L1D TOTAL       ACCESS:   16804994  HIT:   13831027  MISS:    2973967
cpu0_L1D LOAD         ACCESS:   13287840  HIT:   10316775  MISS:    2971065
cpu0_L1D RFO          ACCESS:          0  HIT:          0  MISS:          0
cpu0_L1D PREFETCH     ACCESS:          0  HIT:          0  MISS:          0
cpu0_L1D WRITE        ACCESS:    3510266  HIT:    3507636  MISS:       2630
cpu0_L1D TRANSLATION  ACCESS:       6888  HIT:       6616  MISS:        272
cpu0_L1D PREFETCH  REQUESTED:          0  ISSUED:          0  USEFUL:          0  USELESS:          0
cpu0_L1D AVERAGE MISS LATENCY: 48.1531 cycles
cpu0_L1I TOTAL       ACCESS:          0  HIT:          0  MISS:          0
cpu0_L1I LOAD         ACCESS:          0  HIT:          0  MISS:          0
cpu0_L1I RFO          ACCESS:          0  HIT:          0  MISS:          0
cpu0_L1I PREFETCH     ACCESS:          0  HIT:          0  MISS:          0
cpu0_L1I WRITE        ACCESS:          0  HIT:          0  MISS:          0
cpu0_L1I TRANSLATION  ACCESS:          0  HIT:          0  MISS:          0
cpu0_L1I PREFETCH  REQUESTED:          0  ISSUED:          0  USEFUL:          0  USELESS:          0
cpu0_L1I AVERAGE MISS LATENCY: -nan cycles
cpu0_L2C TOTAL       ACCESS:    1101190  HIT:     662636  MISS:     438554
cpu0_L2C LOAD         ACCESS:     660913  HIT:     222409  MISS:     438504
cpu0_L2C RFO          ACCESS:        763  HIT:        763  MISS:          0
cpu0_L2C PREFETCH     ACCESS:          0  HIT:          0  MISS:          0
cpu0_L2C WRITE        ACCESS:     439245  HIT:     439245  MISS:          0
cpu0_L2C TRANSLATION  ACCESS:        269  HIT:        219  MISS:         50
cpu0_L2C PREFETCH  REQUESTED:          0  ISSUED:          0  USEFUL:          0  USELESS:          0
cpu0_L2C AVERAGE MISS LATENCY: 310.382 cycles
cpu0_STLB TOTAL       ACCESS:      11643  HIT:       4780  MISS:       6863
cpu0_STLB LOAD         ACCESS:      11643  HIT:       4780  MISS:       6863
cpu0_STLB RFO          ACCESS:          0  HIT:          0  MISS:          0
cpu0_STLB PREFETCH     ACCESS:          0  HIT:          0  MISS:          0
cpu0_STLB WRITE        ACCESS:          0  HIT:          0  MISS:          0
cpu0_STLB TRANSLATION  ACCESS:          0  HIT:          0  MISS:          0
cpu0_STLB PREFETCH  REQUESTED:          0  ISSUED:          0  USEFUL:          0  USELESS:          0
cpu0_STLB AVERAGE MISS LATENCY: 209.535 cycles

DRAM Statistics
Channel 0
 RQ ROW_BUFFER_HIT:      24088
  ROW_BUFFER_MISS:     414432
 AVG DBUS CONGESTED CYCLE:    3.97826
 WQ ROW_BUFFER_HIT:     116565
  ROW_BUFFER_MISS:     321663  FULL:          0
