WARNING: physical memory size is smaller than virtual memory size

*** ChampSim Multicore Out-of-Order Simulator ***

Warmup Instructions: 10000000
Simulation Instructions: 50000000
Number of CPUs: 1
Page size: 4096

CPU 0 Bimodal branch predictor
Basic BTB sets: 1024 ways: 8 indirect buffer size: 4096 RAS size: 64
Off-chip DRAM Size: 4 GiB Channels: 1 Width: 64-bit Data Rate: 3200 MT/s
Heartbeat CPU 0 instructions: 10000001 cycles: 2548631 heartbeat IPC: 3.92368 cumulative IPC: 3.92368 (Simulation time: 0 hr 0 min 22 sec) 
Warmup finished CPU 0 instructions: 10000001 cycles: 2548632 cumulative IPC: 3.92368 (Simulation time: 0 hr 0 min 22 sec) 

Warmup complete CPU 0 instructions: 10000001 cycles: 2548632 (Simulation time: 0 hr 0 min 22 sec) 

Heartbeat CPU 0 instructions: 20000002 cycles: 7210038 heartbeat IPC: 2.14528 cumulative IPC: 2.14528 (Simulation time: 0 hr 1 min 0 sec) 
Heartbeat CPU 0 instructions: 30000001 cycles: 12113994 heartbeat IPC: 2.03917 cumulative IPC: 2.09088 (Simulation time: 0 hr 1 min 38 sec) 
Heartbeat CPU 0 instructions: 40000004 cycles: 17004342 heartbeat IPC: 2.04485 cumulative IPC: 2.07531 (Simulation time: 0 hr 2 min 16 sec) 
Heartbeat CPU 0 instructions: 50000002 cycles: 22005546 heartbeat IPC: 1.99952 cumulative IPC: 2.05583 (Simulation time: 0 hr 2 min 55 sec) 
Heartbeat CPU 0 instructions: 60000003 cycles: 29536981 heartbeat IPC: 1.32777 cumulative IPC: 1.85266 (Simulation time: 0 hr 3 min 42 sec) 
Simulation finished CPU 0 instructions: 50000002 cycles: 26988350 cumulative IPC: 1.85266 (Simulation time: 0 hr 3 min 42 sec) 

Simulation complete CPU 0 instructions: 50000002 cycles: 26988350 (Simulation time: 0 hr 3 min 42 sec) 


ChampSim completed all CPUs

=== Simulation ===
CPU 0 runs benchmarks/607.cactuBSSN_s-2421B.champsimtrace.xz

Region of Interest Statistics

CPU 0 cumulative IPC: 1.85266 instructions: 50000002 cycles: 26988350
CPU 0 Branch Prediction Accuracy: 91.6321% MPKI: 0.6887 Average ROB Occupancy at Mispredict: 193.28
Branch type MPKI
BRANCH_DIRECT_JUMP: 0.00124
BRANCH_INDIRECT: 0.00164
BRANCH_CONDITIONAL: 0.35788
BRANCH_DIRECT_CALL: 0.01318
BRANCH_INDIRECT_CALL: 6e-05
BRANCH_RETURN: 0.3147

LLC TOTAL       ACCESS:     307429  HIT:      29442  MISS:     277987
LLC LOAD         ACCESS:     246515  HIT:      24074  MISS:     222441
LLC RFO          ACCESS:      24713  HIT:         35  MISS:      24678
LLC PREFETCH     ACCESS:          0  HIT:          0  MISS:          0
LLC WRITE        ACCESS:      32550  HIT:       4937  MISS:      27613
LLC TRANSLATION  ACCESS:       3651  HIT:        396  MISS:       3255
LLC PREFETCH  REQUESTED:          0  ISSUED:          0  USEFUL:          0  USELESS:          0
LLC AVERAGE MISS LATENCY: 591.643 cycles
cpu0_DTLB TOTAL       ACCESS:   16783041  HIT:   13019025  MISS:    3764016
cpu0_DTLB LOAD         ACCESS:   16783041  HIT:   13019025  MISS:    3764016
cpu0_DTLB RFO          ACCESS:          0  HIT:          0  MISS:          0
cpu0_DTLB PREFETCH     ACCESS:          0  HIT:          0  MISS:          0
cpu0_DTLB WRITE        ACCESS:          0  HIT:          0  MISS:          0
cpu0_DTLB TRANSLATION  ACCESS:          0  HIT:          0  MISS:          0
cpu0_DTLB PREFETCH  REQUESTED:          0  ISSUED:          0  USEFUL:          0  USELESS:          0
cpu0_DTLB AVERAGE MISS LATENCY: 5.64814 cycles
cpu0_ITLB TOTAL       ACCESS:    5986904  HIT:    5986779  MISS:        125
cpu0_ITLB LOAD         ACCESS:    5986904  HIT:    5986779  MISS:        125
cpu0_ITLB RFO          ACCESS:          0  HIT:          0  MISS:          0
cpu0_ITLB PREFETCH     ACCESS:          0  HIT:          0  MISS:          0
cpu0_ITLB WRITE        ACCESS:          0  HIT:          0  MISS:          0
cpu0_ITLB TRANSLATION  ACCESS:          0  HIT:          0  MISS:          0
cpu0_ITLB PREFETCH  REQUESTED:          0  ISSUED:          0  USEFUL:          0  USELESS:          0
cpu0_ITLB AVERAGE MISS LATENCY: 194.249 cycles
cpu0_L1D TOTAL       ACCESS:   26929730  HIT:   15162020  MISS:   11767710
cpu0_L1D LOAD         ACCESS:   21645767  HIT:   11234860  MISS:   10410907
cpu0_L1D RFO          ACCESS:          0  HIT:          0  MISS:          0
cpu0_L1D PREFETCH     ACCESS:          0  HIT:          0  MISS:          0
cpu0_L1D WRITE        ACCESS:    5239495  HIT:    3927040  MISS:    1312455
cpu0_L1D TRANSLATION  ACCESS:      44468  HIT:        120  MISS:      44348
cpu0_L1D PREFETCH  REQUESTED:          0  ISSUED:          0  USEFUL:          0  USELESS:          0
cpu0_L1D AVERAGE MISS LATENCY: 18.1102 cycles
cpu0_L1I TOTAL       ACCESS:    8322002  HIT:    6518737  MISS:    1803265
cpu0_L1I LOAD         ACCESS:    8322002  HIT:    6518737  MISS:    1803265
cpu0_L1I RFO          ACCESS:          0  HIT:          0  MISS:          0
cpu0_L1I PREFETCH     ACCESS:          0  HIT:          0  MISS:          0
cpu0_L1I WRITE        ACCESS:          0  HIT:          0  MISS:          0
cpu0_L1I TRANSLATION  ACCESS:          0  HIT:          0  MISS:          0
cpu0_L1I PREFETCH  REQUESTED:          0  ISSUED:          0  USEFUL:          0  USELESS:          0
cpu0_L1I AVERAGE MISS LATENCY: 7.5676 cycles
cpu0_L2C TOTAL       ACCESS:    5366263  HIT:    5091382  MISS:     274881
cpu0_L2C LOAD         ACCESS:    4754466  HIT:    4507951  MISS:     246515
cpu0_L2C RFO          ACCESS:     303768  HIT:     279054  MISS:      24714
cpu0_L2C PREFETCH     ACCESS:          0  HIT:          0  MISS:          0
cpu0_L2C WRITE        ACCESS:     303527  HIT:     303526  MISS:          1
cpu0_L2C TRANSLATION  ACCESS:       4502  HIT:        851  MISS:       3651
cpu0_L2C PREFETCH  REQUESTED:          0  ISSUED:          0  USEFUL:          0  USELESS:          0
cpu0_L2C AVERAGE MISS LATENCY: 619.241 cycles
cpu0_STLB TOTAL       ACCESS:    2215744  HIT:    2212686  MISS:       3058
cpu0_STLB LOAD         ACCESS:    2215744  HIT:    2212686  MISS:       3058
cpu0_STLB RFO          ACCESS:          0  HIT:          0  MISS:          0
cpu0_STLB PREFETCH     ACCESS:          0  HIT:          0  MISS:          0
cpu0_STLB WRITE        ACCESS:          0  HIT:          0  MISS:          0
cpu0_STLB TRANSLATION  ACCESS:          0  HIT:          0  MISS:          0
cpu0_STLB PREFETCH  REQUESTED:          0  ISSUED:          0  USEFUL:          0  USELESS:          0
cpu0_STLB AVERAGE MISS LATENCY: 1020.37 cycles

DRAM Statistics
Channel 0
 RQ ROW_BUFFER_HIT:     101052
  ROW_BUFFER_MISS:     149285
 AVG DBUS CONGESTED CYCLE:    3.93967
 WQ ROW_BUFFER_HIT:       7198
  ROW_BUFFER_MISS:      23849  FULL:          0
