WARNING: physical memory size is smaller than virtual memory size

*** ChampSim Multicore Out-of-Order Simulator ***

Warmup Instructions: 10000000
Simulation Instructions: 50000000
Number of CPUs: 1
Page size: 4096

CPU 0 Bimodal branch predictor
Basic BTB sets: 1024 ways: 8 indirect buffer size: 4096 RAS size: 64
Off-chip DRAM Size: 4 GiB Channels: 1 Width: 64-bit Data Rate: 3200 MT/s
Heartbeat CPU 0 instructions: 10000002 cycles: 2502150 heartbeat IPC: 3.99657 cumulative IPC: 3.99657 (Simulation time: 0 hr 0 min 21 sec) 
Warmup finished CPU 0 instructions: 10000002 cycles: 2502151 cumulative IPC: 3.99657 (Simulation time: 0 hr 0 min 21 sec) 

Warmup complete CPU 0 instructions: 10000002 cycles: 2502151 (Simulation time: 0 hr 0 min 21 sec) 

Heartbeat CPU 0 instructions: 20000002 cycles: 26067959 heartbeat IPC: 0.424344 cumulative IPC: 0.424344 (Simulation time: 0 hr 1 min 29 sec) 
Heartbeat CPU 0 instructions: 30000004 cycles: 48954902 heartbeat IPC: 0.436931 cumulative IPC: 0.430546 (Simulation time: 0 hr 2 min 35 sec) 
Heartbeat CPU 0 instructions: 40000003 cycles: 71607241 heartbeat IPC: 0.441456 cumulative IPC: 0.434122 (Simulation time: 0 hr 3 min 42 sec) 
Heartbeat CPU 0 instructions: 50000000 cycles: 94573719 heartbeat IPC: 0.435418 cumulative IPC: 0.434445 (Simulation time: 0 hr 4 min 48 sec) 
Heartbeat CPU 0 instructions: 60000001 cycles: 116145649 heartbeat IPC: 0.463566 cumulative IPC: 0.439973 (Simulation time: 0 hr 5 min 52 sec) 
Simulation finished CPU 0 instructions: 50000004 cycles: 113643500 cumulative IPC: 0.439973 (Simulation time: 0 hr 5 min 52 sec) 

Simulation complete CPU 0 instructions: 50000004 cycles: 113643500 (Simulation time: 0 hr 5 min 52 sec) 


ChampSim completed all CPUs

=== Simulation ===
CPU 0 runs benchmarks/620.omnetpp_s-141B.champsimtrace.xz

Region of Interest Statistics

CPU 0 cumulative IPC: 0.439973 instructions: 50000004 cycles: 113643500
CPU 0 Branch Prediction Accuracy: 91.4963% MPKI: 17.9017 Average ROB Occupancy at Mispredict: 43.8098
Branch type MPKI
BRANCH_DIRECT_JUMP: 0.83684
BRANCH_INDIRECT: 0.35484
BRANCH_CONDITIONAL: 15.4062
BRANCH_DIRECT_CALL: 0.00142
BRANCH_INDIRECT_CALL: 0.85714
BRANCH_RETURN: 0.44522

LLC TOTAL       ACCESS:    1231038  HIT:     203755  MISS:    1027283
LLC LOAD         ACCESS:     627548  HIT:      82066  MISS:     545482
LLC RFO          ACCESS:      89478  HIT:      17422  MISS:      72056
LLC PREFETCH     ACCESS:          0  HIT:          0  MISS:          0
LLC WRITE        ACCESS:     281851  HIT:      91226  MISS:     190625
LLC TRANSLATION  ACCESS:     232161  HIT:      13041  MISS:     219120
LLC PREFETCH  REQUESTED:          0  ISSUED:          0  USEFUL:          0  USELESS:          0
LLC AVERAGE MISS LATENCY: 166.377 cycles
cpu0_DTLB TOTAL       ACCESS:   18179293  HIT:   16575489  MISS:    1603804
cpu0_DTLB LOAD         ACCESS:   18179293  HIT:   16575489  MISS:    1603804
cpu0_DTLB RFO          ACCESS:          0  HIT:          0  MISS:          0
cpu0_DTLB PREFETCH     ACCESS:          0  HIT:          0  MISS:          0
cpu0_DTLB WRITE        ACCESS:          0  HIT:          0  MISS:          0
cpu0_DTLB TRANSLATION  ACCESS:          0  HIT:          0  MISS:          0
cpu0_DTLB PREFETCH  REQUESTED:          0  ISSUED:          0  USEFUL:          0  USELESS:          0
cpu0_DTLB AVERAGE MISS LATENCY: 48.3929 cycles
cpu0_ITLB TOTAL       ACCESS:    3935322  HIT:    3820588  MISS:     114734
cpu0_ITLB LOAD         ACCESS:    3935322  HIT:    3820588  MISS:     114734
cpu0_ITLB RFO          ACCESS:          0  HIT:          0  MISS:          0
cpu0_ITLB PREFETCH     ACCESS:          0  HIT:          0  MISS:          0
cpu0_ITLB WRITE        ACCESS:          0  HIT:          0  MISS:          0
cpu0_ITLB TRANSLATION  ACCESS:          0  HIT:          0  MISS:          0
cpu0_ITLB PREFETCH  REQUESTED:          0  ISSUED:          0  USEFUL:          0  USELESS:          0
cpu0_ITLB AVERAGE MISS LATENCY: 5.41136 cycles
cpu0_L1D TOTAL       ACCESS:   21607057  HIT:   19557181  MISS:    2049876
cpu0_L1D LOAD         ACCESS:   12032089  HIT:   10668223  MISS:    1363866
cpu0_L1D RFO          ACCESS:          0  HIT:          0  MISS:          0
cpu0_L1D PREFETCH     ACCESS:          0  HIT:          0  MISS:          0
cpu0_L1D WRITE        ACCESS:    9228612  HIT:    8827500  MISS:     401112
cpu0_L1D TRANSLATION  ACCESS:     346356  HIT:      61458  MISS:     284898
cpu0_L1D PREFETCH  REQUESTED:          0  ISSUED:          0  USEFUL:          0  USELESS:          0
cpu0_L1D AVERAGE MISS LATENCY: 99.3338 cycles
cpu0_L1I TOTAL       ACCESS:    4309609  HIT:    4272303  MISS:      37306
cpu0_L1I LOAD         ACCESS:    4309609  HIT:    4272303  MISS:      37306
cpu0_L1I RFO          ACCESS:          0  HIT:          0  MISS:          0
cpu0_L1I PREFETCH     ACCESS:          0  HIT:          0  MISS:          0
cpu0_L1I WRITE        ACCESS:          0  HIT:          0  MISS:          0
cpu0_L1I TRANSLATION  ACCESS:          0  HIT:          0  MISS:          0
cpu0_L1I PREFETCH  REQUESTED:          0  ISSUED:          0  USEFUL:          0  USELESS:          0
cpu0_L1I AVERAGE MISS LATENCY: 25.5628 cycles
cpu0_L2C TOTAL       ACCESS:    1666038  HIT:     716074  MISS:     949964
cpu0_L2C LOAD         ACCESS:     880334  HIT:     252786  MISS:     627548
cpu0_L2C RFO          ACCESS:     114025  HIT:      24547  MISS:      89478
cpu0_L2C PREFETCH     ACCESS:          0  HIT:          0  MISS:          0
cpu0_L2C WRITE        ACCESS:     387301  HIT:     386524  MISS:        777
cpu0_L2C TRANSLATION  ACCESS:     284378  HIT:      52217  MISS:     232161
cpu0_L2C PREFETCH  REQUESTED:          0  ISSUED:          0  USEFUL:          0  USELESS:          0
cpu0_L2C AVERAGE MISS LATENCY: 200.784 cycles
cpu0_STLB TOTAL       ACCESS:    1082708  HIT:     837824  MISS:     244884
cpu0_STLB LOAD         ACCESS:    1082708  HIT:     837824  MISS:     244884
cpu0_STLB RFO          ACCESS:          0  HIT:          0  MISS:          0
cpu0_STLB PREFETCH     ACCESS:          0  HIT:          0  MISS:          0
cpu0_STLB WRITE        ACCESS:          0  HIT:          0  MISS:          0
cpu0_STLB TRANSLATION  ACCESS:          0  HIT:          0  MISS:          0
cpu0_STLB PREFETCH  REQUESTED:          0  ISSUED:          0  USEFUL:          0  USELESS:          0
cpu0_STLB AVERAGE MISS LATENCY: 282.96 cycles

DRAM Statistics
Channel 0
 RQ ROW_BUFFER_HIT:      58056
  ROW_BUFFER_MISS:     778458
 AVG DBUS CONGESTED CYCLE:    3.86076
 WQ ROW_BUFFER_HIT:      63932
  ROW_BUFFER_MISS:     158651  FULL:          0
