WARNING: physical memory size is smaller than virtual memory size

*** ChampSim Multicore Out-of-Order Simulator ***

Warmup Instructions: 10000000
Simulation Instructions: 50000000
Number of CPUs: 1
Page size: 4096

CPU 0 Bimodal branch predictor
Basic BTB sets: 1024 ways: 8 indirect buffer size: 4096 RAS size: 64
Off-chip DRAM Size: 4 GiB Channels: 1 Width: 64-bit Data Rate: 3200 MT/s
Heartbeat CPU 0 instructions: 10000001 cycles: 2500152 heartbeat IPC: 3.99976 cumulative IPC: 3.99976 (Simulation time: 0 hr 0 min 15 sec) 
Warmup finished CPU 0 instructions: 10000001 cycles: 2500153 cumulative IPC: 3.99976 (Simulation time: 0 hr 0 min 15 sec) 

Warmup complete CPU 0 instructions: 10000001 cycles: 2500153 (Simulation time: 0 hr 0 min 15 sec) 

Heartbeat CPU 0 instructions: 20000001 cycles: 8388298 heartbeat IPC: 1.69833 cumulative IPC: 1.69833 (Simulation time: 0 hr 0 min 40 sec) 
Heartbeat CPU 0 instructions: 30000001 cycles: 14387345 heartbeat IPC: 1.66694 cumulative IPC: 1.68249 (Simulation time: 0 hr 1 min 4 sec) 
Heartbeat CPU 0 instructions: 40000003 cycles: 20297322 heartbeat IPC: 1.69206 cumulative IPC: 1.68567 (Simulation time: 0 hr 1 min 28 sec) 
Heartbeat CPU 0 instructions: 50000000 cycles: 26245426 heartbeat IPC: 1.68121 cumulative IPC: 1.68455 (Simulation time: 0 hr 1 min 53 sec) 
Heartbeat CPU 0 instructions: 60000000 cycles: 32247079 heartbeat IPC: 1.66621 cumulative IPC: 1.68085 (Simulation time: 0 hr 2 min 17 sec) 
Simulation finished CPU 0 instructions: 50000004 cycles: 29746928 cumulative IPC: 1.68085 (Simulation time: 0 hr 2 min 17 sec) 

Simulation complete CPU 0 instructions: 50000004 cycles: 29746928 (Simulation time: 0 hr 2 min 17 sec) 


ChampSim completed all CPUs

=== Simulation ===
CPU 0 runs benchmarks/644.nab_s-12459B.champsimtrace.xz

Region of Interest Statistics

CPU 0 cumulative IPC: 1.68085 instructions: 50000004 cycles: 29746928
CPU 0 Branch Prediction Accuracy: 90.3272% MPKI: 13.827 Average ROB Occupancy at Mispredict: 31.174
Branch type MPKI
BRANCH_DIRECT_JUMP: 0.27594
BRANCH_INDIRECT: 0
BRANCH_CONDITIONAL: 13.5511
BRANCH_DIRECT_CALL: 0
BRANCH_INDIRECT_CALL: 0
BRANCH_RETURN: 0

LLC TOTAL       ACCESS:      34613  HIT:      25369  MISS:       9244
LLC LOAD         ACCESS:      20174  HIT:      18538  MISS:       1636
LLC RFO          ACCESS:       7607  HIT:         33  MISS:       7574
LLC PREFETCH     ACCESS:          0  HIT:          0  MISS:          0
LLC WRITE        ACCESS:       6710  HIT:       6710  MISS:          0
LLC TRANSLATION  ACCESS:        122  HIT:         88  MISS:         34
LLC PREFETCH  REQUESTED:          0  ISSUED:          0  USEFUL:          0  USELESS:          0
LLC AVERAGE MISS LATENCY: 83.6883 cycles
cpu0_DTLB TOTAL       ACCESS:   11830184  HIT:   11814624  MISS:      15560
cpu0_DTLB LOAD         ACCESS:   11830184  HIT:   11814624  MISS:      15560
cpu0_DTLB RFO          ACCESS:          0  HIT:          0  MISS:          0
cpu0_DTLB PREFETCH     ACCESS:          0  HIT:          0  MISS:          0
cpu0_DTLB WRITE        ACCESS:          0  HIT:          0  MISS:          0
cpu0_DTLB TRANSLATION  ACCESS:          0  HIT:          0  MISS:          0
cpu0_DTLB PREFETCH  REQUESTED:          0  ISSUED:          0  USEFUL:          0  USELESS:          0
cpu0_DTLB AVERAGE MISS LATENCY: 8.14332 cycles
cpu0_ITLB TOTAL       ACCESS:          0  HIT:          0  MISS:          0
cpu0_ITLB LOAD         ACCESS:          0  HIT:          0  MISS:          0
cpu0_ITLB RFO          ACCESS:          0  HIT:          0  MISS:          0
cpu0_ITLB PREFETCH     ACCESS:          0  HIT:          0  MISS:          0
cpu0_ITLB WRITE        ACCESS:          0  HIT:          0  MISS:          0
cpu0_ITLB TRANSLATION  ACCESS:          0  HIT:          0  MISS:          0
cpu0_ITLB PREFETCH  REQUESTED:          0  ISSUED:          0  USEFUL:          0  USELESS:          0
cpu0_ITLB AVERAGE MISS LATENCY: -nan cycles
cpu0_L1D TOTAL       ACCESS:   14560369  HIT:   14032755  MISS:     527614
cpu0_L1D LOAD         ACCESS:    9554252  HIT:    9161466  MISS:     392786
cpu0_L1D RFO          ACCESS:          0  HIT:          0  MISS:          0
cpu0_L1D PREFETCH     ACCESS:          0  HIT:          0  MISS:          0
cpu0_L1D WRITE        ACCESS:    5005977  HIT:    4871278  MISS:     134699
cpu0_L1D TRANSLATION  ACCESS:        140  HIT:         11  MISS:        129
cpu0_L1D PREFETCH  REQUESTED:          0  ISSUED:          0  USEFUL:          0  USELESS:          0
cpu0_L1D AVERAGE MISS LATENCY: 8.43517 cycles
cpu0_L1I TOTAL       ACCESS:          0  HIT:          0  MISS:          0
cpu0_L1I LOAD         ACCESS:          0  HIT:          0  MISS:          0
cpu0_L1I RFO          ACCESS:          0  HIT:          0  MISS:          0
cpu0_L1I PREFETCH     ACCESS:          0  HIT:          0  MISS:          0
cpu0_L1I WRITE        ACCESS:          0  HIT:          0  MISS:          0
cpu0_L1I TRANSLATION  ACCESS:          0  HIT:          0  MISS:          0
cpu0_L1I PREFETCH  REQUESTED:          0  ISSUED:          0  USEFUL:          0  USELESS:          0
cpu0_L1I AVERAGE MISS LATENCY: -nan cycles
cpu0_L2C TOTAL       ACCESS:     323172  HIT:     295265  MISS:      27907
cpu0_L2C LOAD         ACCESS:     291390  HIT:     271216  MISS:      20174
cpu0_L2C RFO          ACCESS:      16282  HIT:       8675  MISS:       7607
cpu0_L2C PREFETCH     ACCESS:          0  HIT:          0  MISS:          0
cpu0_L2C WRITE        ACCESS:      15371  HIT:      15367  MISS:          4
cpu0_L2C TRANSLATION  ACCESS:        129  HIT:          7  MISS:        122
cpu0_L2C PREFETCH  REQUESTED:          0  ISSUED:          0  USEFUL:          0  USELESS:          0
cpu0_L2C AVERAGE MISS LATENCY: 48.0503 cycles
cpu0_STLB TOTAL       ACCESS:      11020  HIT:      10880  MISS:        140
cpu0_STLB LOAD         ACCESS:      11020  HIT:      10880  MISS:        140
cpu0_STLB RFO          ACCESS:          0  HIT:          0  MISS:          0
cpu0_STLB PREFETCH     ACCESS:          0  HIT:          0  MISS:          0
cpu0_STLB WRITE        ACCESS:          0  HIT:          0  MISS:          0
cpu0_STLB TRANSLATION  ACCESS:          0  HIT:          0  MISS:          0
cpu0_STLB PREFETCH  REQUESTED:          0  ISSUED:          0  USEFUL:          0  USELESS:          0
cpu0_STLB AVERAGE MISS LATENCY: 274.358 cycles

DRAM Statistics
Channel 0
 RQ ROW_BUFFER_HIT:       7769
  ROW_BUFFER_MISS:       1475
 AVG DBUS CONGESTED CYCLE:    3.59196
 WQ ROW_BUFFER_HIT:          0
  ROW_BUFFER_MISS:          0  FULL:          0
