WARNING: physical memory size is smaller than virtual memory size

*** ChampSim Multicore Out-of-Order Simulator ***

Warmup Instructions: 10000000
Simulation Instructions: 50000000
Number of CPUs: 1
Page size: 4096

CPU 0 Bimodal branch predictor
Basic BTB sets: 1024 ways: 8 indirect buffer size: 4096 RAS size: 64
Off-chip DRAM Size: 4 GiB Channels: 1 Width: 64-bit Data Rate: 3200 MT/s
Heartbeat CPU 0 instructions: 10000003 cycles: 2500045 heartbeat IPC: 3.99993 cumulative IPC: 3.99993 (Simulation time: 0 hr 0 min 17 sec) 
Warmup finished CPU 0 instructions: 10000003 cycles: 2500046 cumulative IPC: 3.99993 (Simulation time: 0 hr 0 min 17 sec) 

Warmup complete CPU 0 instructions: 10000003 cycles: 2500046 (Simulation time: 0 hr 0 min 17 sec) 

Heartbeat CPU 0 instructions: 20000000 cycles: 10853852 heartbeat IPC: 1.19706 cumulative IPC: 1.19706 (Simulation time: 0 hr 1 min 0 sec) 
Heartbeat CPU 0 instructions: 30000004 cycles: 19209179 heartbeat IPC: 1.19685 cumulative IPC: 1.19696 (Simulation time: 0 hr 1 min 45 sec) 
Heartbeat CPU 0 instructions: 40000001 cycles: 27543893 heartbeat IPC: 1.19981 cumulative IPC: 1.1979 (Simulation time: 0 hr 2 min 29 sec) 
Heartbeat CPU 0 instructions: 50000004 cycles: 35907556 heartbeat IPC: 1.19565 cumulative IPC: 1.19734 (Simulation time: 0 hr 3 min 13 sec) 
Heartbeat CPU 0 instructions: 60000000 cycles: 44234093 heartbeat IPC: 1.20098 cumulative IPC: 1.19807 (Simulation time: 0 hr 3 min 58 sec) 
Simulation finished CPU 0 instructions: 50000002 cycles: 41734049 cumulative IPC: 1.19807 (Simulation time: 0 hr 3 min 58 sec) 

Simulation complete CPU 0 instructions: 50000002 cycles: 41734049 (Simulation time: 0 hr 3 min 58 sec) 


ChampSim completed all CPUs

=== Simulation ===
CPU 0 runs benchmarks/649.fotonik3d_s-1176B.champsimtrace.xz

Region of Interest Statistics

CPU 0 cumulative IPC: 1.19807 instructions: 50000002 cycles: 41734049
CPU 0 Branch Prediction Accuracy: 99.9751% MPKI: 0.00438 Average ROB Occupancy at Mispredict: 352
Branch type MPKI
BRANCH_DIRECT_JUMP: 0
BRANCH_INDIRECT: 0
BRANCH_CONDITIONAL: 0.00438
BRANCH_DIRECT_CALL: 0
BRANCH_INDIRECT_CALL: 0
BRANCH_RETURN: 0

LLC TOTAL       ACCESS:     876817  HIT:         71  MISS:     876746
LLC LOAD         ACCESS:     438502  HIT:         25  MISS:     438477
LLC RFO          ACCESS:          0  HIT:          0  MISS:          0
LLC PREFETCH     ACCESS:          0  HIT:          0  MISS:          0
LLC WRITE        ACCESS:     438265  HIT:         45  MISS:     438220
LLC TRANSLATION  ACCESS:         50  HIT:          1  MISS:         49
LLC PREFETCH  REQUESTED:          0  ISSUED:          0  USEFUL:          0  USELESS:          0
LLC AVERAGE MISS LATENCY: 144.856 cycles
cpu0_DTLB TOTAL       ACCESS:   13465464  HIT:   13376786  MISS:      88678
cpu0_DTLB LOAD         ACCESS:   13465464  HIT:   13376786  MISS:      88678
cpu0_DTLB RFO          ACCESS:          0  HIT:          0  MISS:          0
cpu0_DTLB PREFETCH     ACCESS:          0  HIT:          0  MISS:          0
cpu0_DTLB WRITE        ACCESS:          0  HIT:          0  MISS:          0
cpu0_DTLB TRANSLATION  ACCESS:          0  HIT:          0  MISS:          0
cpu0_DTLB PREFETCH  REQUESTED:          0  ISSUED:          0  USEFUL:          0  USELESS:          0
cpu0_DTLB AVERAGE MISS LATENCY: 17.3755 cycles
cpu0_ITLB TOTAL       ACCESS:          0  HIT:          0  MISS:          0
cpu0_ITLB LOAD         ACCESS:          0  HIT:          0  MISS:          0
cpu0_ITLB RFO          ACCESS:          0  HIT:          0  MISS:          0
cpu0_ITLB PREFETCH     ACCESS:          0  HIT:          0  MISS:          0
cpu0_ITLB WRITE        ACCESS:          0  HIT:          0  MISS:          0
cpu0_ITLB TRANSLATION  ACCESS:          0  HIT:          0  MISS:          0
cpu0_ITLB PREFETCH  REQUESTED:          0  ISSUED:          0  USEFUL:          0  USELESS:          0
cpu0_ITLB AVERAGE MISS LATENCY: -nan cycles
cpu0_L1D TOTAL       ACCESS:   16802014  HIT:   13829063  MISS:    2972951
cpu0_L1D LOAD         ACCESS:   13284860  HIT:   10314805  MISS:    2970055
cpu0_L1D RFO          ACCESS:          0  HIT:          0  MISS:          0
cpu0_L1D PREFETCH     ACCESS:          0  HIT:          0  MISS:          0
cpu0_L1D WRITE        ACCESS:    3510266  HIT:    3507642  MISS:       2624
cpu0_L1D TRANSLATION  ACCESS:       6888  HIT:       6616  MISS:        272
cpu0_L1D PREFETCH  REQUESTED:          0  ISSUED:          0  USEFUL:          0  USELESS:          0
cpu0_L1D AVERAGE MISS LATENCY: 48.1991 cycles
cpu0_L1I TOTAL       ACCESS:          0  HIT:          0  MISS:          0
cpu0_L1I LOAD         ACCESS:          0  HIT:          0  MISS:          0
cpu0_L1I RFO          ACCESS:          0  HIT:          0  MISS:          0
cpu0_L1I PREFETCH     ACCESS:          0  HIT:          0  MISS:          0
cpu0_L1I WRITE        ACCESS:          0  HIT:          0  MISS:          0
cpu0_L1I TRANSLATION  ACCESS:          0  HIT:          0  MISS:          0
cpu0_L1I PREFETCH  REQUESTED:          0  ISSUED:          0  USEFUL:          0  USELESS:          0
cpu0_L1I AVERAGE MISS LATENCY: -nan cycles
cpu0_L2C TOTAL       ACCESS:    1101190  HIT:     662638  MISS:     438552
cpu0_L2C LOAD         ACCESS:     660912  HIT:     222410  MISS:     438502
cpu0_L2C RFO          ACCESS:        763  HIT:        763  MISS:          0
cpu0_L2C PREFETCH     ACCESS:          0  HIT:          0  MISS:          0
cpu0_L2C WRITE        ACCESS:     439246  HIT:     439246  MISS:          0
cpu0_L2C TRANSLATION  ACCESS:        269  HIT:        219  MISS:         50
cpu0_L2C PREFETCH  REQUESTED:          0  ISSUED:          0  USEFUL:          0  USELESS:          0
cpu0_L2C AVERAGE MISS LATENCY: 310.582 cycles
cpu0_STLB TOTAL       ACCESS:      11648  HIT:       4785  MISS:       6863
cpu0_STLB LOAD         ACCESS:      11648  HIT:       4785  MISS:       6863
cpu0_STLB RFO          ACCESS:          0  HIT:          0  MISS:          0
cpu0_STLB PREFETCH     ACCESS:          0  HIT:          0  MISS:          0
cpu0_STLB WRITE        ACCESS:          0  HIT:          0  MISS:          0
cpu0_STLB TRANSLATION  ACCESS:          0  HIT:          0  MISS:          0
cpu0_STLB PREFETCH  REQUESTED:          0  ISSUED:          0  USEFUL:          0  USELESS:          0
cpu0_STLB AVERAGE MISS LATENCY: 209.923 cycles

DRAM Statistics
Channel 0
 RQ ROW_BUFFER_HIT:      23875
  ROW_BUFFER_MISS:     414651
 AVG DBUS CONGESTED CYCLE:    3.97832
 WQ ROW_BUFFER_HIT:     116378
  ROW_BUFFER_MISS:     321853  FULL:          0
